1
    SWAT Dec 23 2016    VER 2016/Rev 664                                                                 0/ 0/   0      0: 0: 0

    General Input/Output section (file.cio):                                        
    2/11/2020 17:04:58 QSWAT Workflow v1.5.2                                        
                                                                                    


       RCH      GIS   MON     AREAkm2  FLOW_INcms FLOW_OUTcms     EVAPcms    TLOSScms  SED_INtons SED_OUTtons SEDCONCmg/L   ORGN_INkg  ORGN_OUTkg   ORGP_INkg  ORGP_OUTkg    NO3_INkg   NO3_OUTkg    NH4_INkg   NH4_OUTkg    NO2_INkg   NO2_OUTkg   MINP_INkg  MINP_OUTkg   CHLA_INkg  CHLA_OUTkg   CBOD_INkg  CBOD_OUTkg  DISOX_INkg DISOX_OUTkg SOLPST_INmgSOLPST_OUTmg SORPST_INmgSORPST_OUTmg  REACTPSTmg    VOLPSTmg  SETTLPSTmgRESUSP_PSTmgDIFFUSEPSTmgREACBEDPSTmg   BURYPSTmg   BED_PSTmg BACTP_OUTctBACTLP_OUTct  CMETAL#1kg  CMETAL#2kg  CMETAL#3kg     TOT Nkg     TOT Pkg NO3ConcMg/l    WTMPdegc
REACH    1        0     1  0.7469E-01  0.1282E-01  0.1281E-01  0.1570E-05  0.0000E+00  0.8619E+02  0.8619E+02  0.1051E+04  0.1777E+03  0.1777E+03  0.3912E+02  0.3910E+02  0.3128E+01  0.3128E+01  0.0000E+00  0.2896E-01  0.0000E+00  0.0000E+00  0.9545E-01  0.1059E+00  0.1847E+01  0.1824E+01  0.1132E+05  0.1130E+05  0.2116E+03  0.1011E+03  0.0000E+00  0.0000E+00  0.0000E+00  0.0000E+00  0.0000E+00  0.0000E+00  0.0000E+00  0.0000E+00  0.0000E+00  0.0000E+00  0.0000E+00  0.0000E+00  0.0000E+00  0.0000E+00  0.0000E+00  0.0000E+00  0.0000E+00  0.1808E+03  0.3921E+02  0.0000E+00  0.0000E+00
REACH    2        0     1  0.7223E-01  0.1241E-01  0.1241E-01  0.1745E-05  0.0000E+00  0.1181E+03  0.1181E+03  0.1491E+04  0.1960E+03  0.1959E+03  0.4319E+02  0.4317E+02  0.3057E+01  0.3056E+01  0.0000E+00  0.3425E-01  0.0000E+00  0.0000E+00  0.7099E-01  0.8338E-01  0.2042E+01  0.2012E+01  0.1440E+05  0.1437E+05  0.2044E+03  0.9712E+02  0.0000E+00  0.0000E+00  0.0000E+00  0.0000E+00  0.0000E+00  0.0000E+00  0.0000E+00  0.0000E+00  0.0000E+00  0.0000E+00  0.0000E+00  0.0000E+00  0.0000E+00  0.0000E+00  0.0000E+00  0.0000E+00  0.0000E+00  0.1990E+03  0.4325E+02  0.0000E+00  0.0000E+00
REACH    3        0     1  0.1220E+00  0.2092E-01  0.2092E-01  0.3728E-05  0.0000E+00  0.2658E+03  0.2658E+03  0.2002E+04  0.3475E+03  0.3473E+03  0.7661E+02  0.7656E+02  0.5441E+01  0.5439E+01  0.0000E+00  0.9265E-01  0.0000E+00  0.0000E+00  0.1009E+00  0.1346E+00  0.3542E+01  0.3473E+01  0.2945E+05  0.2937E+05  0.3507E+03  0.1645E+03  0.0000E+00  0.0000E+00  0.0000E+00  0.0000E+00  0.0000E+00  0.0000E+00  0.0000E+00  0.0000E+00  0.0000E+00  0.0000E+00  0.0000E+00  0.0000E+00  0.0000E+00  0.0000E+00  0.0000E+00  0.0000E+00  0.0000E+00  0.3528E+03  0.7669E+02  0.0000E+00  0.0000E+00
REACH    4        0     1  0.1150E+00  0.1979E-01  0.1979E-01  0.6702E-05  0.0000E+00  0.2563E+03  0.2563E+03  0.2033E+04  0.3454E+03  0.3451E+03  0.7618E+02  0.7610E+02  0.4894E+01  0.4892E+01  0.0000E+00  0.1433E+00  0.0000E+00  0.0000E+00  0.8780E-01  0.1398E+00  0.3610E+01  0.3494E+01  0.2909E+05  0.2895E+05  0.3240E+03  0.1538E+03  0.0000E+00  0.0000E+00  0.0000E+00  0.0000E+00  0.0000E+00  0.0000E+00  0.0000E+00  0.0000E+00  0.0000E+00  0.0000E+00  0.0000E+00  0.0000E+00  0.0000E+00  0.0000E+00  0.0000E+00  0.0000E+00  0.0000E+00  0.3501E+03  0.7624E+02  0.0000E+00  0.0000E+00
REACH    5        0     1  0.2578E+00  0.4414E-01  0.4414E-01  0.3204E-05  0.0000E+00  0.5257E+03  0.3707E+02  0.2285E+03  0.7077E+03  0.7076E+03  0.1560E+03  0.1559E+03  0.1188E+02  0.1188E+02  0.2360E+00  0.3281E+00  0.0000E+00  0.0000E+00  0.3392E+00  0.3726E+00  0.7072E+01  0.7019E+01  0.5879E+05  0.5870E+05  0.3850E+03  0.3476E+03  0.0000E+00  0.0000E+00  0.0000E+00  0.0000E+00  0.0000E+00  0.0000E+00  0.0000E+00  0.0000E+00  0.0000E+00  0.0000E+00  0.0000E+00  0.0000E+00  0.0000E+00  0.0000E+00  0.0000E+00  0.0000E+00  0.0000E+00  0.7198E+03  0.1563E+03  0.0000E+00  0.0000E+00
REACH    6        0     1  0.3337E+00  0.5713E-01  0.5713E-01  0.1519E-05  0.0000E+00  0.1554E+03  0.4863E+02  0.2273E+03  0.9057E+03  0.9056E+03  0.1995E+03  0.1995E+03  0.1509E+02  0.1509E+02  0.3623E+00  0.4053E+00  0.0000E+00  0.0000E+00  0.4687E+00  0.4842E+00  0.9042E+01  0.9018E+01  0.7311E+05  0.7307E+05  0.4565E+03  0.4496E+03  0.0000E+00  0.0000E+00  0.0000E+00  0.0000E+00  0.0000E+00  0.0000E+00  0.0000E+00  0.0000E+00  0.0000E+00  0.0000E+00  0.0000E+00  0.0000E+00  0.0000E+00  0.0000E+00  0.0000E+00  0.0000E+00  0.0000E+00  0.9211E+03  0.2000E+03  0.0000E+00  0.0000E+00
REACH    7        0     1  0.4850E+00  0.8293E-01  0.8292E-01  0.9041E-05  0.0000E+00  0.2088E+03  0.6863E+02  0.2204E+03  0.1241E+04  0.1241E+04  0.2733E+03  0.2732E+03  0.2204E+02  0.2204E+02  0.4343E+00  0.7288E+00  0.0000E+00  0.6998E-04  0.7168E+00  0.8235E+00  0.1244E+02  0.1230E+02  0.9389E+05  0.9365E+05  0.7732E+03  0.6542E+03  0.0000E+00  0.0000E+00  0.0000E+00  0.0000E+00  0.0000E+00  0.0000E+00  0.0000E+00  0.0000E+00  0.0000E+00  0.0000E+00  0.0000E+00  0.0000E+00  0.0000E+00  0.0000E+00  0.0000E+00  0.0000E+00  0.0000E+00  0.1264E+04  0.2740E+03  0.0000E+00  0.0000E+00
REACH    1        0     2  0.7469E-01  0.4303E-02  0.4302E-02  0.7434E-06  0.0000E+00  0.4354E+02  0.4354E+02  0.4512E+03  0.4705E+02  0.4704E+02  0.1036E+02  0.1036E+02  0.8849E+00  0.8847E+00  0.0000E+00  0.9282E-02  0.0000E+00  0.0000E+00  0.1770E-01  0.2100E-01  0.6495E+00  0.6403E+00  0.6013E+04  0.6001E+04  0.5971E+02  0.3711E+02  0.0000E+00  0.0000E+00  0.0000E+00  0.0000E+00  0.0000E+00  0.0000E+00  0.0000E+00  0.0000E+00  0.0000E+00  0.0000E+00  0.0000E+00  0.0000E+00  0.0000E+00  0.0000E+00  0.0000E+00  0.0000E+00  0.0000E+00  0.4793E+02  0.1038E+02  0.0000E+00  0.0000E+00
REACH    2        0     2  0.7223E-01  0.4162E-02  0.4161E-02  0.8974E-06  0.0000E+00  0.5963E+02  0.5963E+02  0.6396E+03  0.4837E+02  0.4836E+02  0.1067E+02  0.1067E+02  0.8799E+00  0.8797E+00  0.0000E+00  0.7569E-02  0.0000E+00  0.0000E+00  0.1219E-01  0.1486E-01  0.6641E+00  0.6557E+00  0.7644E+04  0.7633E+04  0.5793E+02  0.3593E+02  0.0000E+00  0.0000E+00  0.0000E+00  0.0000E+00  0.0000E+00  0.0000E+00  0.0000E+00  0.0000E+00  0.0000E+00  0.0000E+00  0.0000E+00  0.0000E+00  0.0000E+00  0.0000E+00  0.0000E+00  0.0000E+00  0.0000E+00  0.4925E+02  0.1068E+02  0.0000E+00  0.0000E+00
REACH    3        0     2  0.1220E+00  0.7107E-02  0.7105E-02  0.2049E-05  0.0000E+00  0.1345E+03  0.1345E+03  0.8628E+03  0.7887E+02  0.7883E+02  0.1740E+02  0.1739E+02  0.1557E+01  0.1557E+01  0.0000E+00  0.2744E-01  0.0000E+00  0.0000E+00  0.1689E-01  0.2673E-01  0.1029E+01  0.1007E+01  0.1565E+05  0.1560E+05  0.1013E+03  0.6299E+02  0.0000E+00  0.0000E+00  0.0000E+00  0.0000E+00  0.0000E+00  0.0000E+00  0.0000E+00  0.0000E+00  0.0000E+00  0.0000E+00  0.0000E+00  0.0000E+00  0.0000E+00  0.0000E+00  0.0000E+00  0.0000E+00  0.0000E+00  0.8041E+02  0.1742E+02  0.0000E+00  0.0000E+00
REACH    4        0     2  0.1150E+00  0.6619E-02  0.6616E-02  0.3658E-05  0.0000E+00  0.1295E+03  0.1295E+03  0.8720E+03  0.7833E+02  0.7828E+02  0.1730E+02  0.1729E+02  0.1426E+01  0.1425E+01  0.0000E+00  0.3401E-01  0.0000E+00  0.0000E+00  0.1332E-01  0.2537E-01  0.1068E+01  0.1035E+01  0.1544E+05  0.1537E+05  0.9181E+02  0.5704E+02  0.0000E+00  0.0000E+00  0.0000E+00  0.0000E+00  0.0000E+00  0.0000E+00  0.0000E+00  0.0000E+00  0.0000E+00  0.0000E+00  0.0000E+00  0.0000E+00  0.0000E+00  0.0000E+00  0.0000E+00  0.0000E+00  0.0000E+00  0.7974E+02  0.1731E+02  0.0000E+00  0.0000E+00
REACH    5        0     2  0.2578E+00  0.1507E-01  0.1507E-01  0.2575E-05  0.0000E+00  0.2659E+03  0.7162E+01  0.9668E+02  0.1625E+03  0.1624E+03  0.3583E+02  0.3581E+02  0.3349E+01  0.3348E+01  0.6145E-01  0.9796E-01  0.0000E+00  0.5491E-05  0.6749E-01  0.8057E-01  0.2089E+01  0.2066E+01  0.3122E+05  0.3115E+05  0.1423E+03  0.1343E+03  0.0000E+00  0.0000E+00  0.0000E+00  0.0000E+00  0.0000E+00  0.0000E+00  0.0000E+00  0.0000E+00  0.0000E+00  0.0000E+00  0.0000E+00  0.0000E+00  0.0000E+00  0.0000E+00  0.0000E+00  0.0000E+00  0.0000E+00  0.1659E+03  0.3589E+02  0.0000E+00  0.0000E+00
REACH    6        0     2  0.3337E+00  0.1947E-01  0.1947E-01  0.1132E-05  0.0000E+00  0.6694E+02  0.1001E+02  0.1035E+03  0.2117E+03  0.2117E+03  0.4667E+02  0.4666E+02  0.4265E+01  0.4265E+01  0.1055E+00  0.1220E+00  0.5491E-05  0.8723E-05  0.9831E-01  0.1042E+00  0.2728E+01  0.2718E+01  0.3881E+05  0.3878E+05  0.1744E+03  0.1729E+03  0.0000E+00  0.0000E+00  0.0000E+00  0.0000E+00  0.0000E+00  0.0000E+00  0.0000E+00  0.0000E+00  0.0000E+00  0.0000E+00  0.0000E+00  0.0000E+00  0.0000E+00  0.0000E+00  0.0000E+00  0.0000E+00  0.0000E+00  0.2160E+03  0.4676E+02  0.0000E+00  0.0000E+00
REACH    7        0     2  0.4850E+00  0.2835E-01  0.2834E-01  0.7417E-05  0.0000E+00  0.9107E+02  0.1425E+02  0.1015E+03  0.3020E+03  0.3018E+03  0.6651E+02  0.6646E+02  0.6167E+01  0.6165E+01  0.1313E+00  0.2416E+00  0.8723E-05  0.6694E-04  0.1519E+00  0.1914E+00  0.3922E+01  0.3862E+01  0.4985E+05  0.4967E+05  0.2772E+03  0.2520E+03  0.0000E+00  0.0000E+00  0.0000E+00  0.0000E+00  0.0000E+00  0.0000E+00  0.0000E+00  0.0000E+00  0.0000E+00  0.0000E+00  0.0000E+00  0.0000E+00  0.0000E+00  0.0000E+00  0.0000E+00  0.0000E+00  0.0000E+00  0.3082E+03  0.6665E+02  0.0000E+00  0.0000E+00
REACH    1        0     3  0.7469E-01  0.1183E-02  0.1182E-02  0.5498E-06  0.0000E+00  0.2480E-06  0.2480E-06  0.3804E-03  0.2316E-06  0.0000E+00  0.6947E-06  0.2888E-06  0.6377E-02  0.6368E-02  0.0000E+00  0.2328E-03  0.0000E+00  0.0000E+00  0.8457E-04  0.8798E-04  0.3147E-07  0.0000E+00  0.0000E+00  0.0000E+00  0.2614E+02  0.2543E+02  0.0000E+00  0.0000E+00  0.0000E+00  0.0000E+00  0.0000E+00  0.0000E+00  0.0000E+00  0.0000E+00  0.0000E+00  0.0000E+00  0.0000E+00  0.0000E+00  0.0000E+00  0.0000E+00  0.0000E+00  0.0000E+00  0.0000E+00  0.6601E-02  0.8827E-04  0.0000E+00  0.0000E+00
REACH    2        0     3  0.7223E-01  0.1138E-02  0.1137E-02  0.6614E-06  0.0000E+00  0.2480E-06  0.2480E-06  0.4651E-03  0.2239E-06  0.7071E-08  0.6718E-06  0.2780E-06  0.4993E-02  0.4982E-02  0.0000E+00  0.2806E-03  0.0000E+00  0.0000E+00  0.5549E-04  0.5942E-04  0.2414E-07  0.0000E+00  0.0000E+00  0.0000E+00  0.2514E+02  0.2446E+02  0.0000E+00  0.0000E+00  0.0000E+00  0.0000E+00  0.0000E+00  0.0000E+00  0.0000E+00  0.0000E+00  0.0000E+00  0.0000E+00  0.0000E+00  0.0000E+00  0.0000E+00  0.0000E+00  0.0000E+00  0.0000E+00  0.0000E+00  0.5262E-02  0.5970E-04  0.0000E+00  0.0000E+00
REACH    3        0     3  0.1220E+00  0.1943E-02  0.1941E-02  0.1532E-05  0.0000E+00  0.1660E-06  0.1660E-06  0.1433E-03  0.3778E-06  0.1189E-07  0.1133E-05  0.4686E-06  0.4208E+00  0.4203E+00  0.0000E+00  0.6881E-03  0.0000E+00  0.0000E+00  0.6238E-06  0.3605E-07  0.3715E-14  0.0000E+00  0.0000E+00  0.0000E+00  0.4294E+02  0.4176E+02  0.0000E+00  0.0000E+00  0.0000E+00  0.0000E+00  0.0000E+00  0.0000E+00  0.0000E+00  0.0000E+00  0.0000E+00  0.0000E+00  0.0000E+00  0.0000E+00  0.0000E+00  0.0000E+00  0.0000E+00  0.0000E+00  0.0000E+00  0.4210E+00  0.5046E-06  0.0000E+00  0.0000E+00
REACH    4        0     3  0.1150E+00  0.1796E-02  0.1794E-02  0.2755E-05  0.0000E+00  0.9300E-07  0.9300E-07  0.1330E-03  0.3566E-06  0.1107E-06  0.1070E-05  0.4630E-06  0.6679E-02  0.6632E-02  0.0000E+00  0.1223E-02  0.0000E+00  0.0000E+00  0.7062E-06  0.3719E-06  0.1298E-11  0.0000E+00  0.0000E+00  0.0000E+00  0.3970E+02  0.3859E+02  0.0000E+00  0.0000E+00  0.0000E+00  0.0000E+00  0.0000E+00  0.0000E+00  0.0000E+00  0.0000E+00  0.0000E+00  0.0000E+00  0.0000E+00  0.0000E+00  0.0000E+00  0.0000E+00  0.0000E+00  0.0000E+00  0.0000E+00  0.7854E-02  0.8349E-06  0.0000E+00  0.0000E+00
REACH    5        0     3  0.2578E+00  0.4171E-02  0.4169E-02  0.2008E-05  0.0000E+00  0.5070E-06  0.1588E+01  0.7143E+02  0.1871E-06  0.2439E-07  0.1125E-05  0.9712E-06  0.2171E+01  0.2170E+01  0.1911E-02  0.2850E-02  0.0000E+00  0.5933E-05  0.1751E-03  0.1880E-03  0.1222E-06  0.0000E+00  0.0000E+00  0.0000E+00  0.8999E+02  0.8969E+02  0.0000E+00  0.0000E+00  0.0000E+00  0.0000E+00  0.0000E+00  0.0000E+00  0.0000E+00  0.0000E+00  0.0000E+00  0.0000E+00  0.0000E+00  0.0000E+00  0.0000E+00  0.0000E+00  0.0000E+00  0.0000E+00  0.0000E+00  0.2173E+01  0.1890E-03  0.0000E+00  0.0000E+00
REACH    6        0     3  0.3337E+00  0.5388E-02  0.5387E-02  0.8971E-06  0.0000E+00  0.1588E+01  0.1957E+01  0.7062E+02  0.4259E-07  0.3166E-07  0.1283E-05  0.1260E-05  0.2177E+01  0.2176E+01  0.3131E-02  0.3555E-02  0.5933E-05  0.9130E-05  0.3475E-03  0.3539E-03  0.5555E-07  0.0000E+00  0.0000E+00  0.0000E+00  0.1160E+03  0.1159E+03  0.0000E+00  0.0000E+00  0.0000E+00  0.0000E+00  0.0000E+00  0.0000E+00  0.0000E+00  0.0000E+00  0.0000E+00  0.0000E+00  0.0000E+00  0.0000E+00  0.0000E+00  0.0000E+00  0.0000E+00  0.0000E+00  0.0000E+00  0.2180E+01  0.3552E-03  0.0000E+00  0.0000E+00
REACH    7        0     3  0.4850E+00  0.7883E-02  0.7877E-02  0.5865E-05  0.0000E+00  0.1957E+01  0.2967E+01  0.7731E+02  0.2693E-06  0.0000E+00  0.2261E-05  0.1684E-05  0.3846E+01  0.3842E+01  0.3787E-02  0.6615E-02  0.9130E-05  0.2743E-04  0.1082E-02  0.1166E-02  0.1723E-01  0.1542E-01  0.0000E+00  0.0000E+00  0.1704E+03  0.1695E+03  0.0000E+00  0.0000E+00  0.0000E+00  0.0000E+00  0.0000E+00  0.0000E+00  0.0000E+00  0.0000E+00  0.0000E+00  0.0000E+00  0.0000E+00  0.0000E+00  0.0000E+00  0.0000E+00  0.0000E+00  0.0000E+00  0.0000E+00  0.3848E+01  0.1167E-02  0.0000E+00  0.0000E+00
REACH    1        0     4  0.7469E-01  0.3980E-02  0.3980E-02  0.8562E-06  0.0000E+00  0.1140E+00  0.1140E+00  0.1143E+01  0.1916E+00  0.1915E+00  0.4168E-01  0.4166E-01  0.1902E+00  0.1902E+00  0.0000E+00  0.2907E-03  0.0000E+00  0.0000E+00  0.1170E-01  0.1171E-01  0.9812E-03  0.9686E-03  0.1387E+02  0.1385E+02  0.7797E+02  0.6562E+02  0.0000E+00  0.0000E+00  0.0000E+00  0.0000E+00  0.0000E+00  0.0000E+00  0.0000E+00  0.0000E+00  0.0000E+00  0.0000E+00  0.0000E+00  0.0000E+00  0.0000E+00  0.0000E+00  0.0000E+00  0.0000E+00  0.0000E+00  0.3820E+00  0.5337E-01  0.0000E+00  0.0000E+00
REACH    2        0     4  0.7223E-01  0.3850E-02  0.3849E-02  0.1042E-05  0.0000E+00  0.1514E+00  0.1514E+00  0.1577E+01  0.1811E+00  0.1811E+00  0.3926E-01  0.3924E-01  0.1914E+00  0.1913E+00  0.0000E+00  0.3529E-03  0.0000E+00  0.0000E+00  0.7431E-02  0.7450E-02  0.7322E-03  0.7201E-03  0.1800E+02  0.1797E+02  0.7420E+02  0.5957E+02  0.0000E+00  0.0000E+00  0.0000E+00  0.0000E+00  0.0000E+00  0.0000E+00  0.0000E+00  0.0000E+00  0.0000E+00  0.0000E+00  0.0000E+00  0.0000E+00  0.0000E+00  0.0000E+00  0.0000E+00  0.0000E+00  0.0000E+00  0.3727E+00  0.4669E-01  0.0000E+00  0.0000E+00
REACH    3        0     4  0.1220E+00  0.6421E-02  0.6418E-02  0.2355E-05  0.0000E+00  0.3407E+00  0.3407E+00  0.2143E+01  0.3054E+00  0.3052E+00  0.6608E-01  0.6603E-01  0.3382E+00  0.3381E+00  0.0000E+00  0.8412E-03  0.0000E+00  0.0000E+00  0.8095E-02  0.8153E-02  0.1159E-02  0.1135E-02  0.4017E+02  0.4005E+02  0.1222E+03  0.9222E+02  0.0000E+00  0.0000E+00  0.0000E+00  0.0000E+00  0.0000E+00  0.0000E+00  0.0000E+00  0.0000E+00  0.0000E+00  0.0000E+00  0.0000E+00  0.0000E+00  0.0000E+00  0.0000E+00  0.0000E+00  0.0000E+00  0.0000E+00  0.6442E+00  0.7418E-01  0.0000E+00  0.0000E+00
REACH    4        0     4  0.1150E+00  0.6135E-02  0.6131E-02  0.4253E-05  0.0000E+00  0.3280E+00  0.3280E+00  0.2150E+01  0.2981E+00  0.2979E+00  0.6465E-01  0.6458E-01  0.3107E+00  0.3105E+00  0.0000E+00  0.1377E-02  0.0000E+00  0.0000E+00  0.5634E-02  0.5689E-02  0.1162E-02  0.1134E-02  0.3892E+02  0.3878E+02  0.1159E+03  0.8772E+02  0.0000E+00  0.0000E+00  0.0000E+00  0.0000E+00  0.0000E+00  0.0000E+00  0.0000E+00  0.0000E+00  0.0000E+00  0.0000E+00  0.0000E+00  0.0000E+00  0.0000E+00  0.0000E+00  0.0000E+00  0.0000E+00  0.0000E+00  0.6098E+00  0.7027E-01  0.0000E+00  0.0000E+00
REACH    5        0     4  0.2578E+00  0.1352E-01  0.1352E-01  0.2514E-05  0.0000E+00  0.6801E+00  0.1226E+02  0.9618E+02  0.6811E+00  0.6810E+00  0.1468E+00  0.1468E+00  0.7451E+00  0.7451E+00  0.2218E-02  0.3205E-02  0.0000E+00  0.1549E-04  0.2445E-01  0.2451E-01  0.2719E-02  0.2702E-02  0.8015E+02  0.8007E+02  0.2000E+03  0.1969E+03  0.0000E+00  0.0000E+00  0.0000E+00  0.0000E+00  0.0000E+00  0.0000E+00  0.0000E+00  0.0000E+00  0.0000E+00  0.0000E+00  0.0000E+00  0.0000E+00  0.0000E+00  0.0000E+00  0.0000E+00  0.0000E+00  0.0000E+00  0.1429E+01  0.1713E+00  0.0000E+00  0.0000E+00
REACH    6        0     4  0.3337E+00  0.1753E-01  0.1753E-01  0.1121E-05  0.0000E+00  0.1241E+02  0.1529E+02  0.9145E+02  0.8676E+00  0.8675E+00  0.1872E+00  0.1872E+00  0.9427E+00  0.9426E+00  0.3558E-02  0.4006E-02  0.1549E-04  0.2406E-04  0.3546E-01  0.3549E-01  0.3499E-02  0.3491E-02  0.9815E+02  0.9811E+02  0.2600E+03  0.2593E+03  0.0000E+00  0.0000E+00  0.0000E+00  0.0000E+00  0.0000E+00  0.0000E+00  0.0000E+00  0.0000E+00  0.0000E+00  0.0000E+00  0.0000E+00  0.0000E+00  0.0000E+00  0.0000E+00  0.0000E+00  0.0000E+00  0.0000E+00  0.1814E+01  0.2227E+00  0.0000E+00  0.0000E+00
REACH    7        0     4  0.4850E+00  0.2541E-01  0.2540E-01  0.6153E-05  0.0000E+00  0.1551E+02  0.2249E+02  0.9176E+02  0.1279E+01  0.1279E+01  0.2752E+00  0.2751E+00  0.1395E+01  0.1394E+01  0.4297E-02  0.7310E-02  0.2406E-04  0.6810E-04  0.6233E-01  0.6252E-01  0.6521E-02  0.6430E-02  0.1244E+03  0.1242E+03  0.4019E+03  0.3881E+03  0.0000E+00  0.0000E+00  0.0000E+00  0.0000E+00  0.0000E+00  0.0000E+00  0.0000E+00  0.0000E+00  0.0000E+00  0.0000E+00  0.0000E+00  0.0000E+00  0.0000E+00  0.0000E+00  0.0000E+00  0.0000E+00  0.0000E+00  0.2680E+01  0.3376E+00  0.0000E+00  0.0000E+00
REACH    1        0     5  0.7469E-01  0.2176E-02  0.2175E-02  0.6554E-06  0.0000E+00  0.5738E-02  0.5738E-02  0.1503E+00  0.8530E-02  0.8528E-02  0.1849E-02  0.1848E-02  0.3624E+00  0.3623E+00  0.0000E+00  0.2417E-03  0.0000E+00  0.0000E+00  0.7891E-03  0.7919E-03  0.3151E-05  0.3104E-05  0.1800E+00  0.1798E+00  0.4821E+02  0.4677E+02  0.0000E+00  0.0000E+00  0.0000E+00  0.0000E+00  0.0000E+00  0.0000E+00  0.0000E+00  0.0000E+00  0.0000E+00  0.0000E+00  0.0000E+00  0.0000E+00  0.0000E+00  0.0000E+00  0.0000E+00  0.0000E+00  0.0000E+00  0.3710E+00  0.2640E-02  0.0000E+00  0.0000E+00
REACH    2        0     5  0.7223E-01  0.2131E-02  0.2131E-02  0.7846E-06  0.0000E+00  0.7874E-02  0.7874E-02  0.2110E+00  0.9137E-02  0.9135E-02  0.1983E-02  0.1982E-02  0.3676E+00  0.3674E+00  0.0000E+00  0.2916E-03  0.0000E+00  0.0000E+00  0.5011E-03  0.5047E-03  0.3119E-05  0.3063E-05  0.2471E+00  0.2467E+00  0.4718E+02  0.4571E+02  0.0000E+00  0.0000E+00  0.0000E+00  0.0000E+00  0.0000E+00  0.0000E+00  0.0000E+00  0.0000E+00  0.0000E+00  0.0000E+00  0.0000E+00  0.0000E+00  0.0000E+00  0.0000E+00  0.0000E+00  0.0000E+00  0.0000E+00  0.3769E+00  0.2486E-02  0.0000E+00  0.0000E+00
REACH    3        0     5  0.1220E+00  0.3600E-02  0.3598E-02  0.1812E-05  0.0000E+00  0.1750E-01  0.1750E-01  0.2805E+00  0.1424E-01  0.1424E-01  0.3094E-02  0.3092E-02  0.6486E+00  0.6483E+00  0.0000E+00  0.7071E-03  0.0000E+00  0.0000E+00  0.4823E-03  0.5134E-03  0.4658E-05  0.4453E-05  0.5490E+00  0.5479E+00  0.7960E+02  0.7697E+02  0.0000E+00  0.0000E+00  0.0000E+00  0.0000E+00  0.0000E+00  0.0000E+00  0.0000E+00  0.0000E+00  0.0000E+00  0.0000E+00  0.0000E+00  0.0000E+00  0.0000E+00  0.0000E+00  0.0000E+00  0.0000E+00  0.0000E+00  0.6633E+00  0.3605E-02  0.0000E+00  0.0000E+00
REACH    4        0     5  0.1150E+00  0.3428E-02  0.3424E-02  0.3228E-05  0.0000E+00  0.1709E-01  0.1709E-01  0.2855E+00  0.1514E-01  0.1513E-01  0.3288E-02  0.3284E-02  0.6004E+00  0.5999E+00  0.0000E+00  0.1257E-02  0.0000E+00  0.0000E+00  0.3557E-03  0.3632E-03  0.4946E-05  0.4726E-05  0.5359E+00  0.5338E+00  0.7578E+02  0.7324E+02  0.0000E+00  0.0000E+00  0.0000E+00  0.0000E+00  0.0000E+00  0.0000E+00  0.0000E+00  0.0000E+00  0.0000E+00  0.0000E+00  0.0000E+00  0.0000E+00  0.0000E+00  0.0000E+00  0.0000E+00  0.0000E+00  0.0000E+00  0.6163E+00  0.3647E-02  0.0000E+00  0.0000E+00
REACH    5        0     5  0.2578E+00  0.7529E-02  0.7526E-02  0.2351E-05  0.0000E+00  0.3475E-01  0.3870E+01  0.1053E+03  0.2963E-01  0.2962E-01  0.6433E-02  0.6430E-02  0.1340E+01  0.1339E+01  0.1964E-02  0.2924E-02  0.0000E+00  0.4583E-05  0.1492E-02  0.1549E-02  0.1023E-04  0.1008E-04  0.1087E+01  0.1085E+01  0.1615E+03  0.1611E+03  0.0000E+00  0.0000E+00  0.0000E+00  0.0000E+00  0.0000E+00  0.0000E+00  0.0000E+00  0.0000E+00  0.0000E+00  0.0000E+00  0.0000E+00  0.0000E+00  0.0000E+00  0.0000E+00  0.0000E+00  0.0000E+00  0.0000E+00  0.1372E+01  0.7980E-02  0.0000E+00  0.0000E+00
REACH    6        0     5  0.3337E+00  0.9736E-02  0.9735E-02  0.1055E-05  0.0000E+00  0.3878E+01  0.4888E+01  0.9961E+02  0.3876E-01  0.3875E-01  0.8412E-02  0.8411E-02  0.1718E+01  0.1718E+01  0.3216E-02  0.3650E-02  0.4583E-05  0.6460E-05  0.2339E-02  0.2367E-02  0.1351E-04  0.1344E-04  0.1332E+01  0.1331E+01  0.2086E+03  0.2085E+03  0.0000E+00  0.0000E+00  0.0000E+00  0.0000E+00  0.0000E+00  0.0000E+00  0.0000E+00  0.0000E+00  0.0000E+00  0.0000E+00  0.0000E+00  0.0000E+00  0.0000E+00  0.0000E+00  0.0000E+00  0.0000E+00  0.0000E+00  0.1760E+01  0.1078E-01  0.0000E+00  0.0000E+00
REACH    7        0     5  0.4850E+00  0.1404E-01  0.1403E-01  0.6915E-05  0.0000E+00  0.4899E+01  0.6957E+01  0.1012E+03  0.5627E-01  0.5624E-01  0.1218E-01  0.1217E-01  0.2492E+01  0.2491E+01  0.3892E-02  0.6785E-02  0.6460E-05  0.2098E-04  0.5233E-02  0.5453E-02  0.9461E-03  0.8452E-03  0.1710E+01  0.1706E+01  0.3025E+03  0.3009E+03  0.0000E+00  0.0000E+00  0.0000E+00  0.0000E+00  0.0000E+00  0.0000E+00  0.0000E+00  0.0000E+00  0.0000E+00  0.0000E+00  0.0000E+00  0.0000E+00  0.0000E+00  0.0000E+00  0.0000E+00  0.0000E+00  0.0000E+00  0.2554E+01  0.1762E-01  0.0000E+00  0.0000E+00
REACH    1        0     6  0.7469E-01  0.6435E-02  0.6434E-02  0.6140E-06  0.0000E+00  0.1109E+01  0.1109E+01  0.4248E+01  0.1736E+01  0.1736E+01  0.3769E+00  0.3768E+00  0.1381E+01  0.1381E+01  0.0000E+00  0.4618E-03  0.0000E+00  0.0000E+00  0.4102E-01  0.4110E-01  0.3214E-01  0.3191E-01  0.2828E+03  0.2825E+03  0.8654E+02  0.5203E+02  0.0000E+00  0.0000E+00  0.0000E+00  0.0000E+00  0.0000E+00  0.0000E+00  0.0000E+00  0.0000E+00  0.0000E+00  0.0000E+00  0.0000E+00  0.0000E+00  0.0000E+00  0.0000E+00  0.0000E+00  0.0000E+00  0.0000E+00  0.3118E+01  0.4179E+00  0.0000E+00  0.0000E+00
REACH    2        0     6  0.7223E-01  0.6237E-02  0.6237E-02  0.7398E-06  0.0000E+00  0.1510E+01  0.1510E+01  0.5973E+01  0.1812E+01  0.1811E+01  0.3934E+00  0.3932E+00  0.1375E+01  0.1375E+01  0.0000E+00  0.5767E-03  0.0000E+00  0.0000E+00  0.3169E-01  0.3179E-01  0.3320E-01  0.3290E-01  0.3846E+03  0.3841E+03  0.8197E+02  0.4990E+02  0.0000E+00  0.0000E+00  0.0000E+00  0.0000E+00  0.0000E+00  0.0000E+00  0.0000E+00  0.0000E+00  0.0000E+00  0.0000E+00  0.0000E+00  0.0000E+00  0.0000E+00  0.0000E+00  0.0000E+00  0.0000E+00  0.0000E+00  0.3187E+01  0.4250E+00  0.0000E+00  0.0000E+00
REACH    3        0     6  0.1220E+00  0.1048E-01  0.1048E-01  0.1655E-05  0.0000E+00  0.3413E+01  0.3413E+01  0.8092E+01  0.3086E+01  0.3085E+01  0.6694E+00  0.6691E+00  0.2441E+01  0.2441E+01  0.0000E+00  0.1357E-02  0.0000E+00  0.0000E+00  0.4630E-01  0.4656E-01  0.5464E-01  0.5403E-01  0.8653E+03  0.8636E+03  0.1401E+03  0.8393E+02  0.0000E+00  0.0000E+00  0.0000E+00  0.0000E+00  0.0000E+00  0.0000E+00  0.0000E+00  0.0000E+00  0.0000E+00  0.0000E+00  0.0000E+00  0.0000E+00  0.0000E+00  0.0000E+00  0.0000E+00  0.0000E+00  0.0000E+00  0.5527E+01  0.7156E+00  0.0000E+00  0.0000E+00
REACH    4        0     6  0.1150E+00  0.9948E-02  0.9945E-02  0.2981E-05  0.0000E+00  0.3276E+01  0.3276E+01  0.8157E+01  0.2998E+01  0.2996E+01  0.6516E+00  0.6511E+00  0.2224E+01  0.2223E+01  0.0000E+00  0.2469E-02  0.0000E+00  0.0000E+00  0.3752E-01  0.3795E-01  0.5448E-01  0.5332E-01  0.8343E+03  0.8312E+03  0.1288E+03  0.7882E+02  0.0000E+00  0.0000E+00  0.0000E+00  0.0000E+00  0.0000E+00  0.0000E+00  0.0000E+00  0.0000E+00  0.0000E+00  0.0000E+00  0.0000E+00  0.0000E+00  0.0000E+00  0.0000E+00  0.0000E+00  0.0000E+00  0.0000E+00  0.5222E+01  0.6891E+00  0.0000E+00  0.0000E+00
REACH    5        0     6  0.2578E+00  0.2208E-01  0.2208E-01  0.2073E-05  0.0000E+00  0.6771E+01  0.1608E+02  0.1266E+03  0.6549E+01  0.6548E+01  0.1417E+01  0.1416E+01  0.5143E+01  0.5142E+01  0.3826E-02  0.5606E-02  0.0000E+00  0.2331E-05  0.1147E+00  0.1151E+00  0.1147E+00  0.1140E+00  0.1713E+04  0.1711E+04  0.1911E+03  0.1767E+03  0.0000E+00  0.0000E+00  0.0000E+00  0.0000E+00  0.0000E+00  0.0000E+00  0.0000E+00  0.0000E+00  0.0000E+00  0.0000E+00  0.0000E+00  0.0000E+00  0.0000E+00  0.0000E+00  0.0000E+00  0.0000E+00  0.0000E+00  0.1170E+02  0.1532E+01  0.0000E+00  0.0000E+00
REACH    6        0     6  0.3337E+00  0.2859E-01  0.2859E-01  0.9168E-06  0.0000E+00  0.1760E+02  0.2177E+02  0.1250E+03  0.8402E+01  0.8402E+01  0.1819E+01  0.1819E+01  0.6562E+01  0.6562E+01  0.6183E-02  0.6974E-02  0.2331E-05  0.3661E-05  0.1546E+00  0.1548E+00  0.1478E+00  0.1476E+00  0.2097E+04  0.2096E+04  0.2317E+03  0.2286E+03  0.0000E+00  0.0000E+00  0.0000E+00  0.0000E+00  0.0000E+00  0.0000E+00  0.0000E+00  0.0000E+00  0.0000E+00  0.0000E+00  0.0000E+00  0.0000E+00  0.0000E+00  0.0000E+00  0.0000E+00  0.0000E+00  0.0000E+00  0.1497E+02  0.1973E+01  0.0000E+00  0.0000E+00
REACH    7        0     6  0.4850E+00  0.4147E-01  0.4147E-01  0.5966E-05  0.0000E+00  0.2386E+02  0.2936E+02  0.1216E+03  0.1190E+02  0.1190E+02  0.2573E+01  0.2572E+01  0.9469E+01  0.9468E+01  0.7436E-02  0.1316E-01  0.3661E-05  0.1166E-04  0.2505E+00  0.2517E+00  0.2135E+00  0.2115E+00  0.2626E+04  0.2620E+04  0.3722E+03  0.3312E+03  0.0000E+00  0.0000E+00  0.0000E+00  0.0000E+00  0.0000E+00  0.0000E+00  0.0000E+00  0.0000E+00  0.0000E+00  0.0000E+00  0.0000E+00  0.0000E+00  0.0000E+00  0.0000E+00  0.0000E+00  0.0000E+00  0.0000E+00  0.2138E+02  0.2823E+01  0.0000E+00  0.0000E+00
REACH    1        0     7  0.7469E-01  0.4578E-02  0.4577E-02  0.7389E-06  0.0000E+00  0.2111E+00  0.2111E+00  0.4880E+01  0.3922E+00  0.3921E+00  0.8552E-01  0.8549E-01  0.1515E+01  0.1515E+01  0.0000E+00  0.2901E-03  0.0000E+00  0.0000E+00  0.7231E-02  0.7255E-02  0.5633E-03  0.5563E-03  0.1324E+02  0.1322E+02  0.9857E+02  0.8510E+02  0.0000E+00  0.0000E+00  0.0000E+00  0.0000E+00  0.0000E+00  0.0000E+00  0.0000E+00  0.0000E+00  0.0000E+00  0.0000E+00  0.0000E+00  0.0000E+00  0.0000E+00  0.0000E+00  0.0000E+00  0.0000E+00  0.0000E+00  0.1907E+01  0.9274E-01  0.0000E+00  0.0000E+00
REACH    2        0     7  0.7223E-01  0.4439E-02  0.4438E-02  0.7018E-06  0.0000E+00  0.2848E+00  0.2848E+00  0.6806E+01  0.3910E+00  0.3909E+00  0.8523E-01  0.8520E-01  0.1468E+01  0.1468E+01  0.0000E+00  0.3442E-03  0.0000E+00  0.0000E+00  0.4761E-02  0.4789E-02  0.4150E-03  0.4089E-03  0.1742E+02  0.1740E+02  0.9537E+02  0.7930E+02  0.0000E+00  0.0000E+00  0.0000E+00  0.0000E+00  0.0000E+00  0.0000E+00  0.0000E+00  0.0000E+00  0.0000E+00  0.0000E+00  0.0000E+00  0.0000E+00  0.0000E+00  0.0000E+00  0.0000E+00  0.0000E+00  0.0000E+00  0.1859E+01  0.8999E-01  0.0000E+00  0.0000E+00
REACH    3        0     7  0.1220E+00  0.7424E-02  0.7422E-02  0.1579E-05  0.0000E+00  0.6371E+00  0.6371E+00  0.9166E+01  0.6218E+00  0.6216E+00  0.1359E+00  0.1358E+00  0.2487E+01  0.2487E+01  0.0000E+00  0.8253E-03  0.0000E+00  0.0000E+00  0.4846E-02  0.4922E-02  0.5941E-03  0.5823E-03  0.3873E+02  0.3865E+02  0.1597E+03  0.1274E+03  0.0000E+00  0.0000E+00  0.0000E+00  0.0000E+00  0.0000E+00  0.0000E+00  0.0000E+00  0.0000E+00  0.0000E+00  0.0000E+00  0.0000E+00  0.0000E+00  0.0000E+00  0.0000E+00  0.0000E+00  0.0000E+00  0.0000E+00  0.3109E+01  0.1408E+00  0.0000E+00  0.0000E+00
REACH    4        0     7  0.1150E+00  0.7084E-02  0.7082E-02  0.2795E-05  0.0000E+00  0.6191E+00  0.6191E+00  0.9297E+01  0.6460E+00  0.6456E+00  0.1411E+00  0.1410E+00  0.2341E+01  0.2340E+01  0.0000E+00  0.1457E-02  0.0000E+00  0.0000E+00  0.4089E-02  0.4192E-02  0.6310E-03  0.6083E-03  0.3778E+02  0.3766E+02  0.1517E+03  0.1211E+03  0.0000E+00  0.0000E+00  0.0000E+00  0.0000E+00  0.0000E+00  0.0000E+00  0.0000E+00  0.0000E+00  0.0000E+00  0.0000E+00  0.0000E+00  0.0000E+00  0.0000E+00  0.0000E+00  0.0000E+00  0.0000E+00  0.0000E+00  0.2987E+01  0.1452E+00  0.0000E+00  0.0000E+00
REACH    5        0     7  0.2578E+00  0.1569E-01  0.1569E-01  0.1996E-05  0.0000E+00  0.1266E+01  0.1045E+02  0.1513E+03  0.1307E+01  0.1306E+01  0.2852E+00  0.2851E+00  0.5324E+01  0.5324E+01  0.2283E-02  0.3393E-02  0.0000E+00  0.6559E-06  0.1379E-01  0.1391E-01  0.1263E-02  0.1248E-02  0.7684E+02  0.7674E+02  0.2751E+03  0.2718E+03  0.0000E+00  0.0000E+00  0.0000E+00  0.0000E+00  0.0000E+00  0.0000E+00  0.0000E+00  0.0000E+00  0.0000E+00  0.0000E+00  0.0000E+00  0.0000E+00  0.0000E+00  0.0000E+00  0.0000E+00  0.0000E+00  0.0000E+00  0.6634E+01  0.2990E+00  0.0000E+00  0.0000E+00
REACH    6        0     7  0.3337E+00  0.2033E-01  0.2033E-01  0.8849E-06  0.0000E+00  0.1073E+02  0.1303E+02  0.1508E+03  0.1700E+01  0.1700E+01  0.3710E+00  0.3709E+00  0.6862E+01  0.6862E+01  0.3737E-02  0.4244E-02  0.6559E-06  0.1029E-05  0.2060E-01  0.2066E-01  0.1672E-02  0.1665E-02  0.9416E+02  0.9411E+02  0.3555E+03  0.3548E+03  0.0000E+00  0.0000E+00  0.0000E+00  0.0000E+00  0.0000E+00  0.0000E+00  0.0000E+00  0.0000E+00  0.0000E+00  0.0000E+00  0.0000E+00  0.0000E+00  0.0000E+00  0.0000E+00  0.0000E+00  0.0000E+00  0.0000E+00  0.8566E+01  0.3916E+00  0.0000E+00  0.0000E+00
REACH    7        0     7  0.4850E+00  0.2948E-01  0.2947E-01  0.5726E-05  0.0000E+00  0.1342E+02  0.1915E+02  0.1557E+03  0.2456E+01  0.2455E+01  0.5345E+00  0.5342E+00  0.1095E+02  0.1095E+02  0.4534E-02  0.7957E-02  0.1029E-05  0.4227E-05  0.3969E-01  0.4013E-01  0.4142E-01  0.3846E-01  0.1190E+03  0.1187E+03  0.5390E+03  0.5242E+03  0.0000E+00  0.0000E+00  0.0000E+00  0.0000E+00  0.0000E+00  0.0000E+00  0.0000E+00  0.0000E+00  0.0000E+00  0.0000E+00  0.0000E+00  0.0000E+00  0.0000E+00  0.0000E+00  0.0000E+00  0.0000E+00  0.0000E+00  0.1341E+02  0.5743E+00  0.0000E+00  0.0000E+00
REACH    1        0     8  0.7469E-01  0.1051E-01  0.1051E-01  0.1070E-05  0.0000E+00  0.7114E+01  0.7114E+01  0.5290E+02  0.1283E+02  0.1282E+02  0.2795E+01  0.2795E+01  0.1594E+01  0.1593E+01  0.0000E+00  0.2034E-02  0.0000E+00  0.0000E+00  0.6085E-01  0.6148E-01  0.1919E+00  0.1901E+00  0.1642E+04  0.1639E+04  0.1737E+03  0.1140E+03  0.0000E+00  0.0000E+00  0.0000E+00  0.0000E+00  0.0000E+00  0.0000E+00  0.0000E+00  0.0000E+00  0.0000E+00  0.0000E+00  0.0000E+00  0.0000E+00  0.0000E+00  0.0000E+00  0.0000E+00  0.0000E+00  0.0000E+00  0.1442E+02  0.2856E+01  0.0000E+00  0.0000E+00
REACH    2        0     8  0.7223E-01  0.1017E-01  0.1017E-01  0.1291E-05  0.0000E+00  0.9692E+01  0.9692E+01  0.7470E+02  0.1327E+02  0.1327E+02  0.2898E+01  0.2897E+01  0.1538E+01  0.1538E+01  0.0000E+00  0.2496E-02  0.0000E+00  0.0000E+00  0.4402E-01  0.4480E-01  0.1955E+00  0.1931E+00  0.2233E+04  0.2229E+04  0.1687E+03  0.1091E+03  0.0000E+00  0.0000E+00  0.0000E+00  0.0000E+00  0.0000E+00  0.0000E+00  0.0000E+00  0.0000E+00  0.0000E+00  0.0000E+00  0.0000E+00  0.0000E+00  0.0000E+00  0.0000E+00  0.0000E+00  0.0000E+00  0.0000E+00  0.1481E+02  0.2942E+01  0.0000E+00  0.0000E+00
REACH    3        0     8  0.1220E+00  0.1710E-01  0.1710E-01  0.2663E-05  0.0000E+00  0.2187E+02  0.2187E+02  0.1007E+03  0.2159E+02  0.2159E+02  0.4725E+01  0.4722E+01  0.2717E+01  0.2716E+01  0.0000E+00  0.5745E-02  0.0000E+00  0.0000E+00  0.6322E-01  0.6505E-01  0.3072E+00  0.3026E+00  0.4911E+04  0.4900E+04  0.2874E+03  0.1821E+03  0.0000E+00  0.0000E+00  0.0000E+00  0.0000E+00  0.0000E+00  0.0000E+00  0.0000E+00  0.0000E+00  0.0000E+00  0.0000E+00  0.0000E+00  0.0000E+00  0.0000E+00  0.0000E+00  0.0000E+00  0.0000E+00  0.0000E+00  0.2431E+02  0.4787E+01  0.0000E+00  0.0000E+00
REACH    4        0     8  0.1150E+00  0.1620E-01  0.1619E-01  0.4829E-05  0.0000E+00  0.2106E+02  0.2106E+02  0.1021E+03  0.2168E+02  0.2166E+02  0.4747E+01  0.4742E+01  0.2440E+01  0.2439E+01  0.0000E+00  0.1092E-01  0.0000E+00  0.0000E+00  0.4921E-01  0.5268E-01  0.3171E+00  0.3078E+00  0.4821E+04  0.4800E+04  0.2679E+03  0.1715E+03  0.0000E+00  0.0000E+00  0.0000E+00  0.0000E+00  0.0000E+00  0.0000E+00  0.0000E+00  0.0000E+00  0.0000E+00  0.0000E+00  0.0000E+00  0.0000E+00  0.0000E+00  0.0000E+00  0.0000E+00  0.0000E+00  0.0000E+00  0.2411E+02  0.4795E+01  0.0000E+00  0.0000E+00
REACH    5        0     8  0.2578E+00  0.3606E-01  0.3606E-01  0.3276E-05  0.0000E+00  0.4328E+02  0.2416E+02  0.1682E+03  0.4494E+02  0.4493E+02  0.9821E+01  0.9818E+01  0.5585E+01  0.5584E+01  0.1667E-01  0.2508E-01  0.0000E+00  0.1141E-05  0.1664E+00  0.1692E+00  0.6311E+00  0.6259E+00  0.9773E+04  0.9757E+04  0.4060E+03  0.3855E+03  0.0000E+00  0.0000E+00  0.0000E+00  0.0000E+00  0.0000E+00  0.0000E+00  0.0000E+00  0.0000E+00  0.0000E+00  0.0000E+00  0.0000E+00  0.0000E+00  0.0000E+00  0.0000E+00  0.0000E+00  0.0000E+00  0.0000E+00  0.5054E+02  0.9987E+01  0.0000E+00  0.0000E+00
REACH    6        0     8  0.3337E+00  0.4671E-01  0.4671E-01  0.1440E-05  0.0000E+00  0.3388E+02  0.3188E+02  0.1661E+03  0.5843E+02  0.5842E+02  0.1276E+02  0.1276E+02  0.7218E+01  0.7217E+01  0.2758E-01  0.3141E-01  0.1141E-05  0.1569E-05  0.2247E+00  0.2260E+00  0.8218E+00  0.8195E+00  0.1199E+05  0.1198E+05  0.5040E+03  0.5000E+03  0.0000E+00  0.0000E+00  0.0000E+00  0.0000E+00  0.0000E+00  0.0000E+00  0.0000E+00  0.0000E+00  0.0000E+00  0.0000E+00  0.0000E+00  0.0000E+00  0.0000E+00  0.0000E+00  0.0000E+00  0.0000E+00  0.0000E+00  0.6567E+02  0.1299E+02  0.0000E+00  0.0000E+00
REACH    7        0     8  0.4850E+00  0.6784E-01  0.6783E-01  0.9301E-05  0.0000E+00  0.4509E+02  0.4336E+02  0.1589E+03  0.8270E+02  0.8266E+02  0.1804E+02  0.1802E+02  0.1044E+02  0.1044E+02  0.3344E-01  0.6281E-01  0.1569E-05  0.5336E-05  0.3739E+00  0.3836E+00  0.1176E+01  0.1161E+01  0.1502E+05  0.1497E+05  0.7963E+03  0.7294E+03  0.0000E+00  0.0000E+00  0.0000E+00  0.0000E+00  0.0000E+00  0.0000E+00  0.0000E+00  0.0000E+00  0.0000E+00  0.0000E+00  0.0000E+00  0.0000E+00  0.0000E+00  0.0000E+00  0.0000E+00  0.0000E+00  0.0000E+00  0.9317E+02  0.1841E+02  0.0000E+00  0.0000E+00
REACH    1        0     9  0.7469E-01  0.2809E-02  0.2809E-02  0.9076E-06  0.0000E+00  0.2113E+01  0.2113E+01  0.4601E+02  0.3097E+01  0.3096E+01  0.6759E+00  0.6756E+00  0.3746E+00  0.3745E+00  0.0000E+00  0.5551E-03  0.0000E+00  0.0000E+00  0.7114E-02  0.7238E-02  0.2590E-01  0.2564E-01  0.3560E+03  0.3556E+03  0.4981E+02  0.3190E+02  0.0000E+00  0.0000E+00  0.0000E+00  0.0000E+00  0.0000E+00  0.0000E+00  0.0000E+00  0.0000E+00  0.0000E+00  0.0000E+00  0.0000E+00  0.0000E+00  0.0000E+00  0.0000E+00  0.0000E+00  0.0000E+00  0.0000E+00  0.3471E+01  0.6829E+00  0.0000E+00  0.0000E+00
REACH    2        0     9  0.7223E-01  0.2718E-02  0.2717E-02  0.1095E-05  0.0000E+00  0.2875E+01  0.2875E+01  0.6487E+02  0.3095E+01  0.3093E+01  0.6765E+00  0.6762E+00  0.3532E+00  0.3531E+00  0.0000E+00  0.6896E-03  0.0000E+00  0.0000E+00  0.4772E-02  0.4930E-02  0.2504E-01  0.2472E-01  0.4751E+03  0.4744E+03  0.4862E+02  0.3043E+02  0.0000E+00  0.0000E+00  0.0000E+00  0.0000E+00  0.0000E+00  0.0000E+00  0.0000E+00  0.0000E+00  0.0000E+00  0.0000E+00  0.0000E+00  0.0000E+00  0.0000E+00  0.0000E+00  0.0000E+00  0.0000E+00  0.0000E+00  0.3447E+01  0.6811E+00  0.0000E+00  0.0000E+00
REACH    3        0     9  0.1220E+00  0.4563E-02  0.4561E-02  0.2167E-05  0.0000E+00  0.6439E+01  0.6439E+01  0.8756E+02  0.4430E+01  0.4429E+01  0.9720E+00  0.9716E+00  0.6047E+00  0.6044E+00  0.0000E+00  0.1436E-02  0.0000E+00  0.0000E+00  0.5711E-02  0.6015E-02  0.3436E-01  0.3381E-01  0.9670E+03  0.9654E+03  0.8295E+02  0.5065E+02  0.0000E+00  0.0000E+00  0.0000E+00  0.0000E+00  0.0000E+00  0.0000E+00  0.0000E+00  0.0000E+00  0.0000E+00  0.0000E+00  0.0000E+00  0.0000E+00  0.0000E+00  0.0000E+00  0.0000E+00  0.0000E+00  0.0000E+00  0.5035E+01  0.9777E+00  0.0000E+00  0.0000E+00
REACH    4        0     9  0.1150E+00  0.4323E-02  0.4319E-02  0.3867E-05  0.0000E+00  0.6248E+01  0.6248E+01  0.8874E+02  0.4659E+01  0.4657E+01  0.1022E+01  0.1021E+01  0.5513E+00  0.5509E+00  0.0000E+00  0.2722E-02  0.0000E+00  0.0000E+00  0.4826E-02  0.5409E-02  0.3722E-01  0.3608E-01  0.9614E+03  0.9583E+03  0.7735E+02  0.4726E+02  0.0000E+00  0.0000E+00  0.0000E+00  0.0000E+00  0.0000E+00  0.0000E+00  0.0000E+00  0.0000E+00  0.0000E+00  0.0000E+00  0.0000E+00  0.0000E+00  0.0000E+00  0.0000E+00  0.0000E+00  0.0000E+00  0.0000E+00  0.5210E+01  0.1027E+01  0.0000E+00  0.0000E+00
REACH    5        0     9  0.2578E+00  0.9670E-02  0.9668E-02  0.2778E-05  0.0000E+00  0.1277E+02  0.5566E+01  0.1133E+03  0.9342E+01  0.9340E+01  0.2048E+01  0.2047E+01  0.1270E+01  0.1270E+01  0.4158E-02  0.6251E-02  0.0000E+00  0.2433E-05  0.1605E-01  0.1653E-01  0.7149E-01  0.7079E-01  0.1936E+04  0.1933E+04  0.1138E+03  0.1083E+03  0.0000E+00  0.0000E+00  0.0000E+00  0.0000E+00  0.0000E+00  0.0000E+00  0.0000E+00  0.0000E+00  0.0000E+00  0.0000E+00  0.0000E+00  0.0000E+00  0.0000E+00  0.0000E+00  0.0000E+00  0.0000E+00  0.0000E+00  0.1062E+02  0.2064E+01  0.0000E+00  0.0000E+00
REACH    6        0     9  0.3337E+00  0.1253E-01  0.1253E-01  0.1230E-05  0.0000E+00  0.8446E+01  0.7709E+01  0.1194E+03  0.1246E+02  0.1246E+02  0.2730E+01  0.2729E+01  0.1647E+01  0.1647E+01  0.6941E-02  0.7878E-02  0.2433E-05  0.3827E-05  0.2278E-01  0.2300E-01  0.9573E-01  0.9542E-01  0.2408E+04  0.2407E+04  0.1417E+03  0.1407E+03  0.0000E+00  0.0000E+00  0.0000E+00  0.0000E+00  0.0000E+00  0.0000E+00  0.0000E+00  0.0000E+00  0.0000E+00  0.0000E+00  0.0000E+00  0.0000E+00  0.0000E+00  0.0000E+00  0.0000E+00  0.0000E+00  0.0000E+00  0.1412E+02  0.2752E+01  0.0000E+00  0.0000E+00
REACH    7        0     9  0.4850E+00  0.1822E-01  0.1821E-01  0.8112E-05  0.0000E+00  0.1160E+02  0.1095E+02  0.1195E+03  0.1811E+02  0.1810E+02  0.3959E+01  0.3957E+01  0.2405E+01  0.2404E+01  0.8434E-02  0.1531E-01  0.3827E-05  0.1137E-04  0.3981E-01  0.4147E-01  0.1418E+00  0.1397E+00  0.3059E+04  0.3052E+04  0.2256E+03  0.2062E+03  0.0000E+00  0.0000E+00  0.0000E+00  0.0000E+00  0.0000E+00  0.0000E+00  0.0000E+00  0.0000E+00  0.0000E+00  0.0000E+00  0.0000E+00  0.0000E+00  0.0000E+00  0.0000E+00  0.0000E+00  0.0000E+00  0.0000E+00  0.2052E+02  0.3999E+01  0.0000E+00  0.0000E+00
REACH    1        0    10  0.7469E-01  0.4139E-02  0.4138E-02  0.1034E-05  0.0000E+00  0.1041E+02  0.1041E+02  0.1582E+03  0.1374E+02  0.1374E+02  0.3002E+01  0.3001E+01  0.8104E+00  0.8102E+00  0.0000E+00  0.2029E-02  0.0000E+00  0.0000E+00  0.1945E-01  0.2010E-01  0.1496E+00  0.1478E+00  0.1827E+04  0.1824E+04  0.5980E+02  0.2561E+02  0.0000E+00  0.0000E+00  0.0000E+00  0.0000E+00  0.0000E+00  0.0000E+00  0.0000E+00  0.0000E+00  0.0000E+00  0.0000E+00  0.0000E+00  0.0000E+00  0.0000E+00  0.0000E+00  0.0000E+00  0.0000E+00  0.0000E+00  0.1455E+02  0.3021E+01  0.0000E+00  0.0000E+00
REACH    2        0    10  0.7223E-01  0.3999E-02  0.3998E-02  0.1244E-05  0.0000E+00  0.1414E+02  0.1414E+02  0.2230E+03  0.1287E+02  0.1286E+02  0.2817E+01  0.2816E+01  0.7752E+00  0.7750E+00  0.0000E+00  0.2362E-02  0.0000E+00  0.0000E+00  0.1331E-01  0.1406E-01  0.1361E+00  0.1340E+00  0.2311E+04  0.2307E+04  0.5877E+02  0.2503E+02  0.0000E+00  0.0000E+00  0.0000E+00  0.0000E+00  0.0000E+00  0.0000E+00  0.0000E+00  0.0000E+00  0.0000E+00  0.0000E+00  0.0000E+00  0.0000E+00  0.0000E+00  0.0000E+00  0.0000E+00  0.0000E+00  0.0000E+00  0.1364E+02  0.2830E+01  0.0000E+00  0.0000E+00
REACH    3        0    10  0.1220E+00  0.6678E-02  0.6675E-02  0.2816E-05  0.0000E+00  0.3173E+02  0.3173E+02  0.3025E+03  0.1865E+02  0.1864E+02  0.4100E+01  0.4097E+01  0.1335E+01  0.1334E+01  0.0000E+00  0.5009E-02  0.0000E+00  0.0000E+00  0.1641E-01  0.1801E-01  0.1877E+00  0.1841E+00  0.4711E+04  0.4699E+04  0.1013E+03  0.4283E+02  0.0000E+00  0.0000E+00  0.0000E+00  0.0000E+00  0.0000E+00  0.0000E+00  0.0000E+00  0.0000E+00  0.0000E+00  0.0000E+00  0.0000E+00  0.0000E+00  0.0000E+00  0.0000E+00  0.0000E+00  0.0000E+00  0.0000E+00  0.1998E+02  0.4115E+01  0.0000E+00  0.0000E+00
REACH    4        0    10  0.1150E+00  0.6366E-02  0.6361E-02  0.5059E-05  0.0000E+00  0.3071E+02  0.3071E+02  0.3049E+03  0.1915E+02  0.1914E+02  0.4211E+01  0.4206E+01  0.1223E+01  0.1223E+01  0.0000E+00  0.9439E-02  0.0000E+00  0.0000E+00  0.1345E-01  0.1644E-01  0.2002E+00  0.1929E+00  0.4669E+04  0.4647E+04  0.9406E+02  0.4002E+02  0.0000E+00  0.0000E+00  0.0000E+00  0.0000E+00  0.0000E+00  0.0000E+00  0.0000E+00  0.0000E+00  0.0000E+00  0.0000E+00  0.0000E+00  0.0000E+00  0.0000E+00  0.0000E+00  0.0000E+00  0.0000E+00  0.0000E+00  0.2037E+02  0.4222E+01  0.0000E+00  0.0000E+00
REACH    5        0    10  0.2578E+00  0.1411E-01  0.1411E-01  0.3014E-05  0.0000E+00  0.6287E+02  0.1104E+02  0.1059E+03  0.3911E+02  0.3911E+02  0.8589E+01  0.8587E+01  0.2860E+01  0.2860E+01  0.1445E-01  0.2011E-01  0.0000E+00  0.8177E-05  0.4648E-01  0.4826E-01  0.3882E+00  0.3852E+00  0.9415E+04  0.9404E+04  0.1023E+03  0.9125E+02  0.0000E+00  0.0000E+00  0.0000E+00  0.0000E+00  0.0000E+00  0.0000E+00  0.0000E+00  0.0000E+00  0.0000E+00  0.0000E+00  0.0000E+00  0.0000E+00  0.0000E+00  0.0000E+00  0.0000E+00  0.0000E+00  0.0000E+00  0.4198E+02  0.8635E+01  0.0000E+00  0.0000E+00
REACH    6        0    10  0.3337E+00  0.1831E-01  0.1830E-01  0.1330E-05  0.0000E+00  0.2522E+02  0.1548E+02  0.1128E+03  0.5218E+02  0.5218E+02  0.1145E+02  0.1145E+02  0.3681E+01  0.3681E+01  0.2247E-01  0.2508E-01  0.8177E-05  0.1273E-04  0.6608E-01  0.6691E-01  0.5212E+00  0.5198E+00  0.1171E+05  0.1171E+05  0.1196E+03  0.1177E+03  0.0000E+00  0.0000E+00  0.0000E+00  0.0000E+00  0.0000E+00  0.0000E+00  0.0000E+00  0.0000E+00  0.0000E+00  0.0000E+00  0.0000E+00  0.0000E+00  0.0000E+00  0.0000E+00  0.0000E+00  0.0000E+00  0.0000E+00  0.5589E+02  0.1151E+02  0.0000E+00  0.0000E+00
REACH    7        0    10  0.4850E+00  0.2658E-01  0.2657E-01  0.8747E-05  0.0000E+00  0.3468E+02  0.2135E+02  0.1095E+03  0.7733E+02  0.7730E+02  0.1693E+02  0.1692E+02  0.5378E+01  0.5377E+01  0.2711E-01  0.4699E-01  0.1273E-04  0.3593E-04  0.1105E+00  0.1169E+00  0.7862E+00  0.7767E+00  0.1504E+05  0.1501E+05  0.2083E+03  0.1704E+03  0.0000E+00  0.0000E+00  0.0000E+00  0.0000E+00  0.0000E+00  0.0000E+00  0.0000E+00  0.0000E+00  0.0000E+00  0.0000E+00  0.0000E+00  0.0000E+00  0.0000E+00  0.0000E+00  0.0000E+00  0.0000E+00  0.0000E+00  0.8272E+02  0.1704E+02  0.0000E+00  0.0000E+00
REACH    1        0    11  0.7469E-01  0.3138E-02  0.3137E-02  0.7994E-06  0.0000E+00  0.9714E+01  0.9714E+01  0.1742E+03  0.1094E+02  0.1093E+02  0.2393E+01  0.2393E+01  0.7016E+00  0.7015E+00  0.0000E+00  0.1389E-02  0.0000E+00  0.0000E+00  0.9613E-02  0.1004E-01  0.8603E-01  0.8516E-01  0.1251E+04  0.1250E+04  0.5106E+02  0.2634E+02  0.0000E+00  0.0000E+00  0.0000E+00  0.0000E+00  0.0000E+00  0.0000E+00  0.0000E+00  0.0000E+00  0.0000E+00  0.0000E+00  0.0000E+00  0.0000E+00  0.0000E+00  0.0000E+00  0.0000E+00  0.0000E+00  0.0000E+00  0.1164E+02  0.2403E+01  0.0000E+00  0.0000E+00
REACH    2        0    11  0.7223E-01  0.3034E-02  0.3033E-02  0.1178E-05  0.0000E+00  0.1315E+02  0.1315E+02  0.2452E+03  0.9855E+01  0.9851E+01  0.2160E+01  0.2159E+01  0.6715E+00  0.6713E+00  0.0000E+00  0.1607E-02  0.0000E+00  0.0000E+00  0.6322E-02  0.6809E-02  0.7161E-01  0.7068E-01  0.1557E+04  0.1554E+04  0.5002E+02  0.2564E+02  0.0000E+00  0.0000E+00  0.0000E+00  0.0000E+00  0.0000E+00  0.0000E+00  0.0000E+00  0.0000E+00  0.0000E+00  0.0000E+00  0.0000E+00  0.0000E+00  0.0000E+00  0.0000E+00  0.0000E+00  0.0000E+00  0.0000E+00  0.1052E+02  0.2166E+01  0.0000E+00  0.0000E+00
REACH    3        0    11  0.1220E+00  0.5077E-02  0.5075E-02  0.2185E-05  0.0000E+00  0.2951E+02  0.2951E+02  0.3316E+03  0.1422E+02  0.1421E+02  0.3128E+01  0.3126E+01  0.1155E+01  0.1155E+01  0.0000E+00  0.3137E-02  0.0000E+00  0.0000E+00  0.7514E-02  0.8454E-02  0.9438E-01  0.9282E-01  0.3170E+04  0.3164E+04  0.8573E+02  0.4349E+02  0.0000E+00  0.0000E+00  0.0000E+00  0.0000E+00  0.0000E+00  0.0000E+00  0.0000E+00  0.0000E+00  0.0000E+00  0.0000E+00  0.0000E+00  0.0000E+00  0.0000E+00  0.0000E+00  0.0000E+00  0.0000E+00  0.0000E+00  0.1537E+02  0.3135E+01  0.0000E+00  0.0000E+00
REACH    4        0    11  0.1150E+00  0.4836E-02  0.4832E-02  0.3927E-05  0.0000E+00  0.2854E+02  0.2854E+02  0.3350E+03  0.1441E+02  0.1440E+02  0.3171E+01  0.3169E+01  0.1061E+01  0.1060E+01  0.0000E+00  0.5955E-02  0.0000E+00  0.0000E+00  0.5829E-02  0.7582E-02  0.1012E+00  0.9797E-01  0.3140E+04  0.3130E+04  0.8034E+02  0.4106E+02  0.0000E+00  0.0000E+00  0.0000E+00  0.0000E+00  0.0000E+00  0.0000E+00  0.0000E+00  0.0000E+00  0.0000E+00  0.0000E+00  0.0000E+00  0.0000E+00  0.0000E+00  0.0000E+00  0.0000E+00  0.0000E+00  0.0000E+00  0.1546E+02  0.3177E+01  0.0000E+00  0.0000E+00
REACH    5        0    11  0.2578E+00  0.1075E-01  0.1075E-01  0.2829E-05  0.0000E+00  0.5847E+02  0.6826E+01  0.1108E+03  0.2991E+02  0.2991E+02  0.6576E+01  0.6574E+01  0.2541E+01  0.2540E+01  0.9092E-02  0.1378E-01  0.0000E+00  0.4989E-05  0.2307E-01  0.2451E-01  0.1991E+00  0.1972E+00  0.6347E+04  0.6339E+04  0.1001E+03  0.9225E+02  0.0000E+00  0.0000E+00  0.0000E+00  0.0000E+00  0.0000E+00  0.0000E+00  0.0000E+00  0.0000E+00  0.0000E+00  0.0000E+00  0.0000E+00  0.0000E+00  0.0000E+00  0.0000E+00  0.0000E+00  0.0000E+00  0.0000E+00  0.3246E+02  0.6598E+01  0.0000E+00  0.0000E+00
REACH    6        0    11  0.3337E+00  0.1392E-01  0.1392E-01  0.1254E-05  0.0000E+00  0.2001E+02  0.8883E+01  0.1117E+03  0.3999E+02  0.3999E+02  0.8782E+01  0.8781E+01  0.3250E+01  0.3250E+01  0.1539E-01  0.1771E-01  0.4989E-05  0.7222E-05  0.3337E-01  0.3410E-01  0.2698E+00  0.2688E+00  0.7897E+04  0.7893E+04  0.1201E+03  0.1190E+03  0.0000E+00  0.0000E+00  0.0000E+00  0.0000E+00  0.0000E+00  0.0000E+00  0.0000E+00  0.0000E+00  0.0000E+00  0.0000E+00  0.0000E+00  0.0000E+00  0.0000E+00  0.0000E+00  0.0000E+00  0.0000E+00  0.0000E+00  0.4325E+02  0.8815E+01  0.0000E+00  0.0000E+00
REACH    7        0    11  0.4850E+00  0.2020E-01  0.2019E-01  0.8195E-05  0.0000E+00  0.2681E+02  0.1263E+02  0.1130E+03  0.6009E+02  0.6007E+02  0.1317E+02  0.1316E+02  0.4775E+01  0.4773E+01  0.1910E-01  0.3682E-01  0.7222E-05  0.2066E-04  0.5808E-01  0.6376E-01  0.4211E+00  0.4145E+00  0.1017E+05  0.1014E+05  0.1993E+03  0.1716E+03  0.0000E+00  0.0000E+00  0.0000E+00  0.0000E+00  0.0000E+00  0.0000E+00  0.0000E+00  0.0000E+00  0.0000E+00  0.0000E+00  0.0000E+00  0.0000E+00  0.0000E+00  0.0000E+00  0.0000E+00  0.0000E+00  0.0000E+00  0.6488E+02  0.1322E+02  0.0000E+00  0.0000E+00
REACH    1        0    12  0.7469E-01  0.5752E-02  0.5751E-02  0.1090E-05  0.0000E+00  0.3383E+02  0.3383E+02  0.4831E+03  0.3239E+02  0.3238E+02  0.7097E+01  0.7094E+01  0.1642E+01  0.1641E+01  0.0000E+00  0.5526E-02  0.0000E+00  0.0000E+00  0.1632E-01  0.1824E-01  0.2902E+00  0.2863E+00  0.4016E+04  0.4009E+04  0.9834E+02  0.5174E+02  0.0000E+00  0.0000E+00  0.0000E+00  0.0000E+00  0.0000E+00  0.0000E+00  0.0000E+00  0.0000E+00  0.0000E+00  0.0000E+00  0.0000E+00  0.0000E+00  0.0000E+00  0.0000E+00  0.0000E+00  0.0000E+00  0.0000E+00  0.3403E+02  0.7112E+01  0.0000E+00  0.0000E+00
REACH    2        0    12  0.7223E-01  0.5569E-02  0.5568E-02  0.1525E-05  0.0000E+00  0.4575E+02  0.4575E+02  0.6773E+03  0.2805E+02  0.2803E+02  0.6150E+01  0.6146E+01  0.1578E+01  0.1578E+01  0.0000E+00  0.6040E-02  0.0000E+00  0.0000E+00  0.1055E-01  0.1264E-01  0.2304E+00  0.2264E+00  0.4971E+04  0.4960E+04  0.9633E+02  0.4995E+02  0.0000E+00  0.0000E+00  0.0000E+00  0.0000E+00  0.0000E+00  0.0000E+00  0.0000E+00  0.0000E+00  0.0000E+00  0.0000E+00  0.0000E+00  0.0000E+00  0.0000E+00  0.0000E+00  0.0000E+00  0.0000E+00  0.0000E+00  0.2962E+02  0.6159E+01  0.0000E+00  0.0000E+00
REACH    3        0    12  0.1220E+00  0.9365E-02  0.9362E-02  0.2895E-05  0.0000E+00  0.1027E+03  0.1027E+03  0.9129E+03  0.3960E+02  0.3959E+02  0.8717E+01  0.8713E+01  0.2788E+01  0.2788E+01  0.0000E+00  0.7772E-02  0.0000E+00  0.0000E+00  0.1344E-01  0.1604E-01  0.2942E+00  0.2900E+00  0.1012E+05  0.1010E+05  0.1655E+03  0.8414E+02  0.0000E+00  0.0000E+00  0.0000E+00  0.0000E+00  0.0000E+00  0.0000E+00  0.0000E+00  0.0000E+00  0.0000E+00  0.0000E+00  0.0000E+00  0.0000E+00  0.0000E+00  0.0000E+00  0.0000E+00  0.0000E+00  0.0000E+00  0.4238E+02  0.8729E+01  0.0000E+00  0.0000E+00
REACH    4        0    12  0.1150E+00  0.8882E-02  0.8878E-02  0.4039E-05  0.0000E+00  0.9925E+02  0.9925E+02  0.9243E+03  0.3990E+02  0.3989E+02  0.8790E+01  0.8785E+01  0.2496E+01  0.2495E+01  0.0000E+00  0.1302E-01  0.0000E+00  0.0000E+00  0.9525E-02  0.1384E-01  0.3158E+00  0.3076E+00  0.1002E+05  0.9988E+04  0.1546E+03  0.7910E+02  0.0000E+00  0.0000E+00  0.0000E+00  0.0000E+00  0.0000E+00  0.0000E+00  0.0000E+00  0.0000E+00  0.0000E+00  0.0000E+00  0.0000E+00  0.0000E+00  0.0000E+00  0.0000E+00  0.0000E+00  0.0000E+00  0.0000E+00  0.4239E+02  0.8798E+01  0.0000E+00  0.0000E+00
REACH    5        0    12  0.2578E+00  0.1974E-01  0.1974E-01  0.2829E-05  0.0000E+00  0.2035E+03  0.1496E+02  0.1592E+03  0.8399E+02  0.8397E+02  0.1847E+02  0.1846E+02  0.6100E+01  0.6100E+01  0.2079E-01  0.3176E-01  0.0000E+00  0.7434E-06  0.4568E-01  0.4939E-01  0.6286E+00  0.6234E+00  0.2027E+05  0.2025E+05  0.1916E+03  0.1776E+03  0.0000E+00  0.0000E+00  0.0000E+00  0.0000E+00  0.0000E+00  0.0000E+00  0.0000E+00  0.0000E+00  0.0000E+00  0.0000E+00  0.0000E+00  0.0000E+00  0.0000E+00  0.0000E+00  0.0000E+00  0.0000E+00  0.0000E+00  0.9010E+02  0.1851E+02  0.0000E+00  0.0000E+00
REACH    6        0    12  0.3337E+00  0.2556E-01  0.2556E-01  0.1249E-05  0.0000E+00  0.6084E+02  0.1953E+02  0.1604E+03  0.1129E+03  0.1128E+03  0.2479E+02  0.2479E+02  0.7766E+01  0.7766E+01  0.3780E-01  0.4320E-01  0.7434E-06  0.9234E-06  0.6547E-01  0.6731E-01  0.8569E+00  0.8544E+00  0.2522E+05  0.2521E+05  0.2320E+03  0.2299E+03  0.0000E+00  0.0000E+00  0.0000E+00  0.0000E+00  0.0000E+00  0.0000E+00  0.0000E+00  0.0000E+00  0.0000E+00  0.0000E+00  0.0000E+00  0.0000E+00  0.0000E+00  0.0000E+00  0.0000E+00  0.0000E+00  0.0000E+00  0.1207E+03  0.2486E+02  0.0000E+00  0.0000E+00
REACH    7        0    12  0.4850E+00  0.3708E-01  0.3708E-01  0.8124E-05  0.0000E+00  0.8193E+02  0.2766E+02  0.1607E+03  0.1722E+03  0.1722E+03  0.3775E+02  0.3773E+02  0.1145E+02  0.1145E+02  0.4873E-01  0.9052E-01  0.9234E-06  0.3594E-05  0.1173E+00  0.1317E+00  0.1359E+01  0.1341E+01  0.3250E+05  0.3243E+05  0.3849E+03  0.3339E+03  0.0000E+00  0.0000E+00  0.0000E+00  0.0000E+00  0.0000E+00  0.0000E+00  0.0000E+00  0.0000E+00  0.0000E+00  0.0000E+00  0.0000E+00  0.0000E+00  0.0000E+00  0.0000E+00  0.0000E+00  0.0000E+00  0.0000E+00  0.1837E+03  0.3786E+02  0.0000E+00  0.0000E+00
REACH    1        0  2013  0.7469E-01  0.5159E-02  0.5158E-02  0.8859E-06  0.0000E+00  0.1943E+03  0.1943E+03  0.2006E+03  0.3001E+03  0.3000E+03  0.6595E+02  0.6593E+02  0.1259E+02  0.1259E+02  0.0000E+00  0.5129E-01  0.0000E+00  0.0000E+00  0.2873E+00  0.3049E+00  0.3274E+01  0.3232E+01  0.2673E+05  0.2669E+05  0.1041E+04  0.6627E+03  0.0000E+00  0.0000E+00  0.0000E+00  0.0000E+00  0.0000E+00  0.0000E+00  0.0000E+00  0.0000E+00  0.0000E+00  0.0000E+00  0.0000E+00  0.0000E+00  0.0000E+00  0.0000E+00  0.0000E+00  0.0000E+00  0.0000E+00  0.3127E+03  0.6623E+02  0.0000E+00  0.0000E+00
REACH    2        0  2013  0.7223E-01  0.4995E-02  0.4994E-02  0.1075E-05  0.0000E+00  0.2653E+03  0.2653E+03  0.2834E+03  0.3139E+03  0.3138E+03  0.6908E+02  0.6905E+02  0.1226E+02  0.1226E+02  0.0000E+00  0.5686E-01  0.0000E+00  0.0000E+00  0.2066E+00  0.2261E+00  0.3399E+01  0.3351E+01  0.3401E+05  0.3395E+05  0.1009E+04  0.6321E+03  0.0000E+00  0.0000E+00  0.0000E+00  0.0000E+00  0.0000E+00  0.0000E+00  0.0000E+00  0.0000E+00  0.0000E+00  0.0000E+00  0.0000E+00  0.0000E+00  0.0000E+00  0.0000E+00  0.0000E+00  0.0000E+00  0.0000E+00  0.3261E+03  0.6928E+02  0.0000E+00  0.0000E+00
REACH    3        0  2013  0.1220E+00  0.8400E-02  0.8398E-02  0.2285E-05  0.0000E+00  0.5970E+03  0.5970E+03  0.3817E+03  0.5289E+03  0.5286E+03  0.1165E+03  0.1165E+03  0.2193E+02  0.2193E+02  0.0000E+00  0.1476E+00  0.0000E+00  0.0000E+00  0.2838E+00  0.3350E+00  0.5546E+01  0.5439E+01  0.6993E+05  0.6974E+05  0.1719E+04  0.1053E+04  0.0000E+00  0.0000E+00  0.0000E+00  0.0000E+00  0.0000E+00  0.0000E+00  0.0000E+00  0.0000E+00  0.0000E+00  0.0000E+00  0.0000E+00  0.0000E+00  0.0000E+00  0.0000E+00  0.0000E+00  0.0000E+00  0.0000E+00  0.5507E+03  0.1168E+03  0.0000E+00  0.0000E+00
REACH    4        0  2013  0.1150E+00  0.7962E-02  0.7958E-02  0.4003E-05  0.0000E+00  0.5758E+03  0.5758E+03  0.3867E+03  0.5275E+03  0.5271E+03  0.1163E+03  0.1162E+03  0.1957E+02  0.1956E+02  0.0000E+00  0.2272E+00  0.0000E+00  0.0000E+00  0.2315E+00  0.3093E+00  0.5706E+01  0.5527E+01  0.6905E+05  0.6875E+05  0.1602E+04  0.9893E+03  0.0000E+00  0.0000E+00  0.0000E+00  0.0000E+00  0.0000E+00  0.0000E+00  0.0000E+00  0.0000E+00  0.0000E+00  0.0000E+00  0.0000E+00  0.0000E+00  0.0000E+00  0.0000E+00  0.0000E+00  0.0000E+00  0.0000E+00  0.5468E+03  0.1165E+03  0.0000E+00  0.0000E+00
REACH    5        0  2013  0.2578E+00  0.1773E-01  0.1773E-01  0.2615E-05  0.0000E+00  0.1181E+04  0.1510E+03  0.1279E+03  0.1086E+04  0.1086E+04  0.2391E+03  0.2391E+03  0.4831E+02  0.4830E+02  0.3748E+00  0.5410E+00  0.0000E+00  0.5196E-04  0.8590E+00  0.9162E+00  0.1120E+02  0.1110E+02  0.1396E+06  0.1394E+06  0.2359E+04  0.2233E+04  0.0000E+00  0.0000E+00  0.0000E+00  0.0000E+00  0.0000E+00  0.0000E+00  0.0000E+00  0.0000E+00  0.0000E+00  0.0000E+00  0.0000E+00  0.0000E+00  0.0000E+00  0.0000E+00  0.0000E+00  0.0000E+00  0.0000E+00  0.1135E+04  0.2400E+03  0.0000E+00  0.0000E+00
REACH    6        0  2013  0.3337E+00  0.2296E-01  0.2296E-01  0.1167E-05  0.0000E+00  0.4170E+03  0.1990E+03  0.1283E+03  0.1404E+04  0.1404E+04  0.3091E+03  0.3091E+03  0.6118E+02  0.6117E+02  0.5979E+00  0.6750E+00  0.5196E-04  0.7933E-04  0.1193E+01  0.1219E+01  0.1449E+02  0.1445E+02  0.1734E+06  0.1733E+06  0.2920E+04  0.2897E+04  0.0000E+00  0.0000E+00  0.0000E+00  0.0000E+00  0.0000E+00  0.0000E+00  0.0000E+00  0.0000E+00  0.0000E+00  0.0000E+00  0.0000E+00  0.0000E+00  0.0000E+00  0.0000E+00  0.0000E+00  0.0000E+00  0.0000E+00  0.1466E+04  0.3103E+03  0.0000E+00  0.0000E+00
REACH    7        0  2013  0.4850E+00  0.3333E-01  0.3332E-01  0.7448E-05  0.0000E+00  0.5597E+03  0.2798E+03  0.1277E+03  0.1970E+04  0.1969E+04  0.4331E+03  0.4329E+03  0.9082E+02  0.9079E+02  0.7263E+00  0.1265E+01  0.7933E-04  0.3462E-03  0.1927E+01  0.2113E+01  0.2052E+02  0.2026E+02  0.2224E+06  0.2218E+06  0.4651E+04  0.4232E+04  0.0000E+00  0.0000E+00  0.0000E+00  0.0000E+00  0.0000E+00  0.0000E+00  0.0000E+00  0.0000E+00  0.0000E+00  0.0000E+00  0.0000E+00  0.0000E+00  0.0000E+00  0.0000E+00  0.0000E+00  0.0000E+00  0.0000E+00  0.2061E+04  0.4350E+03  0.0000E+00  0.0000E+00
REACH    1        0     1  0.7469E-01  0.1257E-01  0.1257E-01  0.2110E-05  0.0000E+00  0.7245E+02  0.7245E+02  0.7702E+03  0.2015E+03  0.2015E+03  0.4437E+02  0.4436E+02  0.2799E+01  0.2799E+01  0.0000E+00  0.3056E-01  0.0000E+00  0.0000E+00  0.9162E-01  0.1027E+00  0.2209E+01  0.2184E+01  0.9610E+04  0.9597E+04  0.2086E+03  0.1319E+03  0.0000E+00  0.0000E+00  0.0000E+00  0.0000E+00  0.0000E+00  0.0000E+00  0.0000E+00  0.0000E+00  0.0000E+00  0.0000E+00  0.0000E+00  0.0000E+00  0.0000E+00  0.0000E+00  0.0000E+00  0.0000E+00  0.0000E+00  0.2043E+03  0.4446E+02  0.0000E+00  0.0000E+00
REACH    2        0     1  0.7223E-01  0.1218E-01  0.1218E-01  0.2538E-05  0.0000E+00  0.9796E+02  0.9796E+02  0.1075E+04  0.2091E+03  0.2090E+03  0.4606E+02  0.4604E+02  0.2718E+01  0.2717E+01  0.0000E+00  0.3499E-01  0.0000E+00  0.0000E+00  0.7462E-01  0.8727E-01  0.2259E+01  0.2228E+01  0.1194E+05  0.1192E+05  0.2045E+03  0.1302E+03  0.0000E+00  0.0000E+00  0.0000E+00  0.0000E+00  0.0000E+00  0.0000E+00  0.0000E+00  0.0000E+00  0.0000E+00  0.0000E+00  0.0000E+00  0.0000E+00  0.0000E+00  0.0000E+00  0.0000E+00  0.0000E+00  0.0000E+00  0.2118E+03  0.4613E+02  0.0000E+00  0.0000E+00
REACH    3        0     1  0.1220E+00  0.2056E-01  0.2056E-01  0.3332E-05  0.0000E+00  0.2202E+03  0.2202E+03  0.1440E+04  0.3649E+03  0.3648E+03  0.8045E+02  0.8041E+02  0.4862E+01  0.4861E+01  0.0000E+00  0.8586E-01  0.0000E+00  0.0000E+00  0.1129E+00  0.1441E+00  0.3899E+01  0.3834E+01  0.2436E+05  0.2431E+05  0.3530E+03  0.2222E+03  0.0000E+00  0.0000E+00  0.0000E+00  0.0000E+00  0.0000E+00  0.0000E+00  0.0000E+00  0.0000E+00  0.0000E+00  0.0000E+00  0.0000E+00  0.0000E+00  0.0000E+00  0.0000E+00  0.0000E+00  0.0000E+00  0.0000E+00  0.3697E+03  0.8055E+02  0.0000E+00  0.0000E+00
REACH    4        0     1  0.1150E+00  0.1944E-01  0.1943E-01  0.6030E-05  0.0000E+00  0.2123E+03  0.2123E+03  0.1462E+04  0.3613E+03  0.3610E+03  0.7970E+02  0.7962E+02  0.4332E+01  0.4330E+01  0.0000E+00  0.1621E+00  0.0000E+00  0.0000E+00  0.9898E-01  0.1578E+00  0.3944E+01  0.3817E+01  0.2404E+05  0.2393E+05  0.3280E+03  0.2087E+03  0.0000E+00  0.0000E+00  0.0000E+00  0.0000E+00  0.0000E+00  0.0000E+00  0.0000E+00  0.0000E+00  0.0000E+00  0.0000E+00  0.0000E+00  0.0000E+00  0.0000E+00  0.0000E+00  0.0000E+00  0.0000E+00  0.0000E+00  0.3655E+03  0.7978E+02  0.0000E+00  0.0000E+00
REACH    5        0     1  0.2578E+00  0.4333E-01  0.4333E-01  0.3561E-05  0.0000E+00  0.4359E+03  0.3443E+02  0.2009E+03  0.7470E+03  0.7469E+03  0.1646E+03  0.1646E+03  0.1059E+02  0.1059E+02  0.2479E+00  0.3676E+00  0.0000E+00  0.2886E-04  0.3640E+00  0.4074E+00  0.7837E+01  0.7767E+01  0.4870E+05  0.4863E+05  0.4927E+03  0.4671E+03  0.0000E+00  0.0000E+00  0.0000E+00  0.0000E+00  0.0000E+00  0.0000E+00  0.0000E+00  0.0000E+00  0.0000E+00  0.0000E+00  0.0000E+00  0.0000E+00  0.0000E+00  0.0000E+00  0.0000E+00  0.0000E+00  0.0000E+00  0.7578E+03  0.1650E+03  0.0000E+00  0.0000E+00
REACH    6        0     1  0.3337E+00  0.5608E-01  0.5607E-01  0.1556E-05  0.0000E+00  0.1327E+03  0.4648E+02  0.2069E+03  0.9594E+03  0.9594E+03  0.2114E+03  0.2114E+03  0.1345E+02  0.1345E+02  0.4026E+00  0.4564E+00  0.2886E-04  0.4749E-04  0.5053E+00  0.5248E+00  0.1003E+02  0.9999E+01  0.6059E+05  0.6056E+05  0.6072E+03  0.6031E+03  0.0000E+00  0.0000E+00  0.0000E+00  0.0000E+00  0.0000E+00  0.0000E+00  0.0000E+00  0.0000E+00  0.0000E+00  0.0000E+00  0.0000E+00  0.0000E+00  0.0000E+00  0.0000E+00  0.0000E+00  0.0000E+00  0.0000E+00  0.9733E+03  0.2119E+03  0.0000E+00  0.0000E+00
REACH    7        0     1  0.4850E+00  0.8137E-01  0.8136E-01  0.1010E-04  0.0000E+00  0.1803E+03  0.6388E+02  0.1969E+03  0.1330E+04  0.1329E+04  0.2927E+03  0.2926E+03  0.1968E+02  0.1967E+02  0.4869E+00  0.8906E+00  0.4749E-04  0.2179E-03  0.7621E+00  0.9085E+00  0.1393E+02  0.1374E+02  0.7804E+05  0.7782E+05  0.9582E+03  0.8715E+03  0.0000E+00  0.0000E+00  0.0000E+00  0.0000E+00  0.0000E+00  0.0000E+00  0.0000E+00  0.0000E+00  0.0000E+00  0.0000E+00  0.0000E+00  0.0000E+00  0.0000E+00  0.0000E+00  0.0000E+00  0.0000E+00  0.0000E+00  0.1350E+04  0.2935E+03  0.0000E+00  0.0000E+00
REACH    1        0     2  0.7469E-01  0.7911E-02  0.7910E-02  0.1561E-05  0.0000E+00  0.2659E+01  0.2659E+01  0.1159E+03  0.6389E+01  0.6387E+01  0.1409E+01  0.1408E+01  0.5829E-01  0.5827E-01  0.0000E+00  0.1246E-02  0.0000E+00  0.0000E+00  0.1148E-01  0.1185E-01  0.2770E-01  0.2720E-01  0.2441E+03  0.2437E+03  0.1249E+03  0.8137E+02  0.0000E+00  0.0000E+00  0.0000E+00  0.0000E+00  0.0000E+00  0.0000E+00  0.0000E+00  0.0000E+00  0.0000E+00  0.0000E+00  0.0000E+00  0.0000E+00  0.0000E+00  0.0000E+00  0.0000E+00  0.0000E+00  0.0000E+00  0.6446E+01  0.1420E+01  0.0000E+00  0.0000E+00
REACH    2        0     2  0.7223E-01  0.7653E-02  0.7651E-02  0.1890E-05  0.0000E+00  0.3539E+01  0.3539E+01  0.1604E+03  0.5856E+01  0.5854E+01  0.1292E+01  0.1291E+01  0.5565E-01  0.5563E-01  0.0000E+00  0.1434E-02  0.0000E+00  0.0000E+00  0.7237E-02  0.7654E-02  0.2096E-01  0.2048E-01  0.2978E+03  0.2972E+03  0.1191E+03  0.7280E+02  0.0000E+00  0.0000E+00  0.0000E+00  0.0000E+00  0.0000E+00  0.0000E+00  0.0000E+00  0.0000E+00  0.0000E+00  0.0000E+00  0.0000E+00  0.0000E+00  0.0000E+00  0.0000E+00  0.0000E+00  0.0000E+00  0.0000E+00  0.5911E+01  0.1299E+01  0.0000E+00  0.0000E+00
REACH    3        0     2  0.1220E+00  0.1290E-01  0.1290E-01  0.3065E-05  0.0000E+00  0.7863E+01  0.7863E+01  0.2157E+03  0.8778E+01  0.8774E+01  0.1940E+01  0.1939E+01  0.2420E+01  0.2419E+01  0.0000E+00  0.2796E-02  0.0000E+00  0.0000E+00  0.9375E-02  0.1019E-01  0.2993E-01  0.2913E-01  0.6173E+03  0.6157E+03  0.2007E+03  0.1139E+03  0.0000E+00  0.0000E+00  0.0000E+00  0.0000E+00  0.0000E+00  0.0000E+00  0.0000E+00  0.0000E+00  0.0000E+00  0.0000E+00  0.0000E+00  0.0000E+00  0.0000E+00  0.0000E+00  0.0000E+00  0.0000E+00  0.0000E+00  0.1120E+02  0.1949E+01  0.0000E+00  0.0000E+00
REACH    4        0     2  0.1150E+00  0.1218E-01  0.1218E-01  0.6451E-05  0.0000E+00  0.7645E+01  0.7645E+01  0.2184E+03  0.9138E+01  0.9129E+01  0.2020E+01  0.2017E+01  0.8867E-01  0.8859E-01  0.0000E+00  0.5389E-02  0.0000E+00  0.0000E+00  0.4957E-02  0.6522E-02  0.3068E-01  0.2909E-01  0.6096E+03  0.6067E+03  0.1858E+03  0.1056E+03  0.0000E+00  0.0000E+00  0.0000E+00  0.0000E+00  0.0000E+00  0.0000E+00  0.0000E+00  0.0000E+00  0.0000E+00  0.0000E+00  0.0000E+00  0.0000E+00  0.0000E+00  0.0000E+00  0.0000E+00  0.0000E+00  0.0000E+00  0.9223E+01  0.2024E+01  0.0000E+00  0.0000E+00
REACH    5        0     2  0.2578E+00  0.2724E-01  0.2723E-01  0.3299E-05  0.0000E+00  0.1563E+02  0.1975E+02  0.1871E+03  0.1868E+02  0.1867E+02  0.4123E+01  0.4122E+01  0.1178E+02  0.1178E+02  0.8185E-02  0.1186E-01  0.0000E+00  0.1727E-05  0.3388E-01  0.3495E-01  0.6782E-01  0.6677E-01  0.1235E+04  0.1233E+04  0.2581E+03  0.2447E+03  0.0000E+00  0.0000E+00  0.0000E+00  0.0000E+00  0.0000E+00  0.0000E+00  0.0000E+00  0.0000E+00  0.0000E+00  0.0000E+00  0.0000E+00  0.0000E+00  0.0000E+00  0.0000E+00  0.0000E+00  0.0000E+00  0.0000E+00  0.3047E+02  0.4157E+01  0.0000E+00  0.0000E+00
REACH    6        0     2  0.3337E+00  0.3526E-01  0.3526E-01  0.1462E-05  0.0000E+00  0.2330E+02  0.2517E+02  0.1861E+03  0.2464E+02  0.2464E+02  0.5437E+01  0.5437E+01  0.1185E+02  0.1185E+02  0.1330E-01  0.1530E-01  0.1727E-05  0.2728E-05  0.4653E-01  0.4715E-01  0.8853E-01  0.8803E-01  0.1532E+04  0.1531E+04  0.3243E+03  0.3217E+03  0.0000E+00  0.0000E+00  0.0000E+00  0.0000E+00  0.0000E+00  0.0000E+00  0.0000E+00  0.0000E+00  0.0000E+00  0.0000E+00  0.0000E+00  0.0000E+00  0.0000E+00  0.0000E+00  0.0000E+00  0.0000E+00  0.0000E+00  0.3650E+02  0.5484E+01  0.0000E+00  0.0000E+00
REACH    7        0     2  0.4850E+00  0.5125E-01  0.5124E-01  0.9588E-05  0.0000E+00  0.3002E+02  0.3461E+02  0.1770E+03  0.3587E+02  0.3585E+02  0.7906E+01  0.7900E+01  0.2405E+02  0.2404E+02  0.1654E-01  0.3095E-01  0.2728E-05  0.8268E-05  0.8692E-01  0.9142E-01  0.2980E+00  0.2904E+00  0.1969E+04  0.1963E+04  0.5367E+03  0.4874E+03  0.0000E+00  0.0000E+00  0.0000E+00  0.0000E+00  0.0000E+00  0.0000E+00  0.0000E+00  0.0000E+00  0.0000E+00  0.0000E+00  0.0000E+00  0.0000E+00  0.0000E+00  0.0000E+00  0.0000E+00  0.0000E+00  0.0000E+00  0.5992E+02  0.7991E+01  0.0000E+00  0.0000E+00
REACH    1        0     3  0.7469E-01  0.3782E-02  0.3781E-02  0.1084E-05  0.0000E+00  0.1295E+00  0.1295E+00  0.2024E+01  0.2809E+00  0.2808E+00  0.6122E-01  0.6119E-01  0.1697E-01  0.1697E-01  0.0000E+00  0.3129E-03  0.0000E+00  0.0000E+00  0.6578E-02  0.6602E-02  0.3411E-02  0.3363E-02  0.2764E+02  0.2759E+02  0.7032E+02  0.5574E+02  0.0000E+00  0.0000E+00  0.0000E+00  0.0000E+00  0.0000E+00  0.0000E+00  0.0000E+00  0.0000E+00  0.0000E+00  0.0000E+00  0.0000E+00  0.0000E+00  0.0000E+00  0.0000E+00  0.0000E+00  0.0000E+00  0.0000E+00  0.2981E+00  0.6780E-01  0.0000E+00  0.0000E+00
REACH    2        0     3  0.7223E-01  0.3658E-02  0.3656E-02  0.1536E-05  0.0000E+00  0.1702E+00  0.1702E+00  0.2770E+01  0.2669E+00  0.2667E+00  0.5810E-01  0.5806E-01  0.1567E-01  0.1566E-01  0.0000E+00  0.3475E-03  0.0000E+00  0.0000E+00  0.4301E-02  0.4322E-02  0.2946E-02  0.2909E-02  0.3585E+02  0.3579E+02  0.6643E+02  0.5089E+02  0.0000E+00  0.0000E+00  0.0000E+00  0.0000E+00  0.0000E+00  0.0000E+00  0.0000E+00  0.0000E+00  0.0000E+00  0.0000E+00  0.0000E+00  0.0000E+00  0.0000E+00  0.0000E+00  0.0000E+00  0.0000E+00  0.0000E+00  0.2827E+00  0.6239E-01  0.0000E+00  0.0000E+00
REACH    3        0     3  0.1220E+00  0.6188E-02  0.6186E-02  0.2470E-05  0.0000E+00  0.3833E+00  0.3833E+00  0.3763E+01  0.4669E+00  0.4668E+00  0.1015E+00  0.1014E+00  0.5429E+00  0.5428E+00  0.0000E+00  0.8240E-03  0.0000E+00  0.0000E+00  0.5267E-02  0.5348E-02  0.5771E-02  0.5680E-02  0.7994E+02  0.7980E+02  0.1117E+03  0.8303E+02  0.0000E+00  0.0000E+00  0.0000E+00  0.0000E+00  0.0000E+00  0.0000E+00  0.0000E+00  0.0000E+00  0.0000E+00  0.0000E+00  0.0000E+00  0.0000E+00  0.0000E+00  0.0000E+00  0.0000E+00  0.0000E+00  0.0000E+00  0.1010E+01  0.1068E+00  0.0000E+00  0.0000E+00
REACH    4        0     3  0.1150E+00  0.5820E-02  0.5816E-02  0.4443E-05  0.0000E+00  0.3682E+00  0.3682E+00  0.3775E+01  0.4482E+00  0.4479E+00  0.9772E-01  0.9764E-01  0.2630E-01  0.2628E-01  0.0000E+00  0.1468E-02  0.0000E+00  0.0000E+00  0.3218E-02  0.3293E-02  0.4843E-02  0.4698E-02  0.7742E+02  0.7716E+02  0.1031E+03  0.7705E+02  0.0000E+00  0.0000E+00  0.0000E+00  0.0000E+00  0.0000E+00  0.0000E+00  0.0000E+00  0.0000E+00  0.0000E+00  0.0000E+00  0.0000E+00  0.0000E+00  0.0000E+00  0.0000E+00  0.0000E+00  0.0000E+00  0.0000E+00  0.4757E+00  0.1009E+00  0.0000E+00  0.0000E+00
REACH    5        0     3  0.2578E+00  0.1309E-01  0.1309E-01  0.3079E-05  0.0000E+00  0.7669E+00  0.9351E+01  0.1321E+03  0.1054E+01  0.1054E+01  0.2274E+00  0.2274E+00  0.2503E+01  0.2503E+01  0.2292E-02  0.3407E-02  0.0000E+00  0.1597E-05  0.1578E-01  0.1591E-01  0.1532E-01  0.1517E-01  0.1597E+03  0.1595E+03  0.1827E+03  0.1772E+03  0.0000E+00  0.0000E+00  0.0000E+00  0.0000E+00  0.0000E+00  0.0000E+00  0.0000E+00  0.0000E+00  0.0000E+00  0.0000E+00  0.0000E+00  0.0000E+00  0.0000E+00  0.0000E+00  0.0000E+00  0.0000E+00  0.0000E+00  0.3560E+01  0.2433E+00  0.0000E+00  0.0000E+00
REACH    6        0     3  0.3337E+00  0.1694E-01  0.1694E-01  0.1364E-05  0.0000E+00  0.9521E+01  0.1203E+02  0.1348E+03  0.1325E+01  0.1325E+01  0.2865E+00  0.2865E+00  0.2521E+01  0.2520E+01  0.3754E-02  0.4257E-02  0.1597E-05  0.2262E-05  0.2229E-01  0.2235E-01  0.1815E-01  0.1810E-01  0.1954E+03  0.1953E+03  0.2323E+03  0.2309E+03  0.0000E+00  0.0000E+00  0.0000E+00  0.0000E+00  0.0000E+00  0.0000E+00  0.0000E+00  0.0000E+00  0.0000E+00  0.0000E+00  0.0000E+00  0.0000E+00  0.0000E+00  0.0000E+00  0.0000E+00  0.0000E+00  0.0000E+00  0.3850E+01  0.3088E+00  0.0000E+00  0.0000E+00
REACH    7        0     3  0.4850E+00  0.2463E-01  0.2462E-01  0.8967E-05  0.0000E+00  0.1227E+02  0.1685E+02  0.1327E+03  0.1916E+01  0.1915E+01  0.4130E+00  0.4128E+00  0.3817E+01  0.3816E+01  0.4570E-02  0.7979E-02  0.2262E-05  0.7501E-05  0.4162E-01  0.4202E-01  0.4261E-01  0.4109E-01  0.2467E+03  0.2462E+03  0.3620E+03  0.3435E+03  0.0000E+00  0.0000E+00  0.0000E+00  0.0000E+00  0.0000E+00  0.0000E+00  0.0000E+00  0.0000E+00  0.0000E+00  0.0000E+00  0.0000E+00  0.0000E+00  0.0000E+00  0.0000E+00  0.0000E+00  0.0000E+00  0.0000E+00  0.5739E+01  0.4548E+00  0.0000E+00  0.0000E+00
REACH    1        0     4  0.7469E-01  0.8708E-02  0.8706E-02  0.1469E-05  0.0000E+00  0.1490E+00  0.1490E+00  0.2724E+01  0.3104E+00  0.3103E+00  0.6718E-01  0.6715E-01  0.3506E+00  0.3506E+00  0.0000E+00  0.3473E-03  0.0000E+00  0.0000E+00  0.1943E-01  0.1946E-01  0.2050E-02  0.2018E-02  0.2115E+02  0.2111E+02  0.1748E+03  0.1549E+03  0.0000E+00  0.0000E+00  0.0000E+00  0.0000E+00  0.0000E+00  0.0000E+00  0.0000E+00  0.0000E+00  0.0000E+00  0.0000E+00  0.0000E+00  0.0000E+00  0.0000E+00  0.0000E+00  0.0000E+00  0.0000E+00  0.0000E+00  0.6612E+00  0.8661E-01  0.0000E+00  0.0000E+00
REACH    2        0     4  0.7223E-01  0.8425E-02  0.8423E-02  0.1778E-05  0.0000E+00  0.1962E+00  0.1962E+00  0.3722E+01  0.2977E+00  0.2976E+00  0.6430E-01  0.6427E-01  0.3528E+00  0.3528E+00  0.0000E+00  0.3959E-03  0.0000E+00  0.0000E+00  0.1239E-01  0.1242E-01  0.1633E-02  0.1604E-02  0.2718E+02  0.2712E+02  0.1663E+03  0.1432E+03  0.0000E+00  0.0000E+00  0.0000E+00  0.0000E+00  0.0000E+00  0.0000E+00  0.0000E+00  0.0000E+00  0.0000E+00  0.0000E+00  0.0000E+00  0.0000E+00  0.0000E+00  0.0000E+00  0.0000E+00  0.0000E+00  0.0000E+00  0.6508E+00  0.7669E-01  0.0000E+00  0.0000E+00
REACH    3        0     4  0.1220E+00  0.1413E-01  0.1413E-01  0.2285E-05  0.0000E+00  0.4435E+00  0.4435E+00  0.5047E+01  0.5297E+00  0.5295E+00  0.1140E+00  0.1140E+00  0.6166E+00  0.6165E+00  0.0000E+00  0.8581E-03  0.0000E+00  0.0000E+00  0.1343E-01  0.1353E-01  0.2740E-02  0.2697E-02  0.6087E+02  0.6076E+02  0.2745E+03  0.2271E+03  0.0000E+00  0.0000E+00  0.0000E+00  0.0000E+00  0.0000E+00  0.0000E+00  0.0000E+00  0.0000E+00  0.0000E+00  0.0000E+00  0.0000E+00  0.0000E+00  0.0000E+00  0.0000E+00  0.0000E+00  0.0000E+00  0.0000E+00  0.1147E+01  0.1275E+00  0.0000E+00  0.0000E+00
REACH    4        0     4  0.1150E+00  0.1342E-01  0.1341E-01  0.4094E-05  0.0000E+00  0.4258E+00  0.4258E+00  0.5085E+01  0.5090E+00  0.5087E+00  0.1099E+00  0.1099E+00  0.5733E+00  0.5732E+00  0.0000E+00  0.1515E-02  0.0000E+00  0.0000E+00  0.9603E-02  0.9728E-02  0.2730E-02  0.2652E-02  0.5885E+02  0.5867E+02  0.2592E+03  0.2146E+03  0.0000E+00  0.0000E+00  0.0000E+00  0.0000E+00  0.0000E+00  0.0000E+00  0.0000E+00  0.0000E+00  0.0000E+00  0.0000E+00  0.0000E+00  0.0000E+00  0.0000E+00  0.0000E+00  0.0000E+00  0.0000E+00  0.0000E+00  0.1083E+01  0.1196E+00  0.0000E+00  0.0000E+00
REACH    5        0     4  0.2578E+00  0.2982E-01  0.2982E-01  0.2803E-05  0.0000E+00  0.8859E+00  0.2265E+02  0.2088E+03  0.1178E+01  0.1178E+01  0.2522E+00  0.2521E+00  0.1332E+01  0.1332E+01  0.2373E-02  0.3517E-02  0.0000E+00  0.8246E-06  0.3914E-01  0.3929E-01  0.5978E-02  0.5923E-02  0.1213E+03  0.1212E+03  0.4898E+03  0.4852E+03  0.0000E+00  0.0000E+00  0.0000E+00  0.0000E+00  0.0000E+00  0.0000E+00  0.0000E+00  0.0000E+00  0.0000E+00  0.0000E+00  0.0000E+00  0.0000E+00  0.0000E+00  0.0000E+00  0.0000E+00  0.0000E+00  0.0000E+00  0.2513E+01  0.2914E+00  0.0000E+00  0.0000E+00
REACH    6        0     4  0.3337E+00  0.3864E-01  0.3864E-01  0.1231E-05  0.0000E+00  0.2284E+02  0.3041E+02  0.2121E+03  0.1478E+01  0.1478E+01  0.3169E+00  0.3169E+00  0.1697E+01  0.1697E+01  0.3913E-02  0.4423E-02  0.8246E-06  0.1296E-05  0.5668E-01  0.5674E-01  0.7570E-02  0.7546E-02  0.1483E+03  0.1483E+03  0.6369E+03  0.6359E+03  0.0000E+00  0.0000E+00  0.0000E+00  0.0000E+00  0.0000E+00  0.0000E+00  0.0000E+00  0.0000E+00  0.0000E+00  0.0000E+00  0.0000E+00  0.0000E+00  0.0000E+00  0.0000E+00  0.0000E+00  0.0000E+00  0.0000E+00  0.3180E+01  0.3737E+00  0.0000E+00  0.0000E+00
REACH    7        0     4  0.4850E+00  0.5611E-01  0.5611E-01  0.8053E-05  0.0000E+00  0.3069E+02  0.4192E+02  0.1997E+03  0.2151E+01  0.2150E+01  0.4599E+00  0.4597E+00  0.2484E+01  0.2484E+01  0.4770E-02  0.8227E-02  0.1296E-05  0.3790E-05  0.1051E+00  0.1055E+00  0.1281E-01  0.1261E-01  0.1881E+03  0.1877E+03  0.9688E+03  0.9474E+03  0.0000E+00  0.0000E+00  0.0000E+00  0.0000E+00  0.0000E+00  0.0000E+00  0.0000E+00  0.0000E+00  0.0000E+00  0.0000E+00  0.0000E+00  0.0000E+00  0.0000E+00  0.0000E+00  0.0000E+00  0.0000E+00  0.0000E+00  0.4642E+01  0.5652E+00  0.0000E+00  0.0000E+00
REACH    1        0     5  0.7469E-01  0.4284E-02  0.4283E-02  0.1012E-05  0.0000E+00  0.1657E+00  0.1657E+00  0.2155E+01  0.2970E+00  0.2969E+00  0.6417E-01  0.6415E-01  0.9262E+00  0.9261E+00  0.0000E+00  0.3042E-03  0.0000E+00  0.0000E+00  0.1479E-01  0.1482E-01  0.3717E-02  0.3672E-02  0.3348E+02  0.3343E+02  0.7983E+02  0.6185E+02  0.0000E+00  0.0000E+00  0.0000E+00  0.0000E+00  0.0000E+00  0.0000E+00  0.0000E+00  0.0000E+00  0.0000E+00  0.0000E+00  0.0000E+00  0.0000E+00  0.0000E+00  0.0000E+00  0.0000E+00  0.0000E+00  0.0000E+00  0.1223E+01  0.7896E-01  0.0000E+00  0.0000E+00
REACH    2        0     5  0.7223E-01  0.4170E-02  0.4169E-02  0.1070E-05  0.0000E+00  0.2244E+00  0.2244E+00  0.3006E+01  0.3119E+00  0.3118E+00  0.6741E-01  0.6739E-01  0.9415E+00  0.9413E+00  0.0000E+00  0.3671E-03  0.0000E+00  0.0000E+00  0.1171E-01  0.1174E-01  0.3808E-02  0.3753E-02  0.4521E+02  0.4513E+02  0.7523E+02  0.5573E+02  0.0000E+00  0.0000E+00  0.0000E+00  0.0000E+00  0.0000E+00  0.0000E+00  0.0000E+00  0.0000E+00  0.0000E+00  0.0000E+00  0.0000E+00  0.0000E+00  0.0000E+00  0.0000E+00  0.0000E+00  0.0000E+00  0.0000E+00  0.1253E+01  0.7912E-01  0.0000E+00  0.0000E+00
REACH    3        0     5  0.1220E+00  0.7055E-02  0.7052E-02  0.2398E-05  0.0000E+00  0.5058E+00  0.5058E+00  0.4067E+01  0.5430E+00  0.5428E+00  0.1172E+00  0.1172E+00  0.1637E+01  0.1636E+01  0.0000E+00  0.8824E-03  0.0000E+00  0.0000E+00  0.1634E-01  0.1643E-01  0.6303E-02  0.6184E-02  0.1012E+03  0.1009E+03  0.1264E+03  0.8984E+02  0.0000E+00  0.0000E+00  0.0000E+00  0.0000E+00  0.0000E+00  0.0000E+00  0.0000E+00  0.0000E+00  0.0000E+00  0.0000E+00  0.0000E+00  0.0000E+00  0.0000E+00  0.0000E+00  0.0000E+00  0.0000E+00  0.0000E+00  0.2180E+01  0.1336E+00  0.0000E+00  0.0000E+00
REACH    4        0     5  0.1150E+00  0.6669E-02  0.6664E-02  0.4335E-05  0.0000E+00  0.4872E+00  0.4872E+00  0.4090E+01  0.5333E+00  0.5329E+00  0.1154E+00  0.1152E+00  0.1541E+01  0.1540E+01  0.0000E+00  0.1590E-02  0.0000E+00  0.0000E+00  0.1426E-01  0.1438E-01  0.6445E-02  0.6211E-02  0.9811E+02  0.9763E+02  0.1171E+03  0.8386E+02  0.0000E+00  0.0000E+00  0.0000E+00  0.0000E+00  0.0000E+00  0.0000E+00  0.0000E+00  0.0000E+00  0.0000E+00  0.0000E+00  0.0000E+00  0.0000E+00  0.0000E+00  0.0000E+00  0.0000E+00  0.0000E+00  0.0000E+00  0.2074E+01  0.1296E+00  0.0000E+00  0.0000E+00
REACH    5        0     5  0.2578E+00  0.1486E-01  0.1485E-01  0.3004E-05  0.0000E+00  0.1004E+01  0.1081E+02  0.1314E+03  0.1143E+01  0.1143E+01  0.2461E+00  0.2460E+00  0.3416E+01  0.3415E+01  0.2472E-02  0.3567E-02  0.0000E+00  0.2166E-05  0.3884E-01  0.3895E-01  0.1289E-01  0.1279E-01  0.2003E+03  0.2001E+03  0.1981E+03  0.1915E+03  0.0000E+00  0.0000E+00  0.0000E+00  0.0000E+00  0.0000E+00  0.0000E+00  0.0000E+00  0.0000E+00  0.0000E+00  0.0000E+00  0.0000E+00  0.0000E+00  0.0000E+00  0.0000E+00  0.0000E+00  0.0000E+00  0.0000E+00  0.4562E+01  0.2850E+00  0.0000E+00  0.0000E+00
REACH    6        0     5  0.3337E+00  0.1922E-01  0.1922E-01  0.1154E-05  0.0000E+00  0.1104E+02  0.1548E+02  0.1394E+03  0.1458E+01  0.1458E+01  0.3141E+00  0.3141E+00  0.4387E+01  0.4387E+01  0.3934E-02  0.4420E-02  0.2166E-05  0.3149E-05  0.5300E-01  0.5305E-01  0.1656E-01  0.1652E-01  0.2452E+03  0.2452E+03  0.2517E+03  0.2500E+03  0.0000E+00  0.0000E+00  0.0000E+00  0.0000E+00  0.0000E+00  0.0000E+00  0.0000E+00  0.0000E+00  0.0000E+00  0.0000E+00  0.0000E+00  0.0000E+00  0.0000E+00  0.0000E+00  0.0000E+00  0.0000E+00  0.0000E+00  0.5849E+01  0.3671E+00  0.0000E+00  0.0000E+00
REACH    7        0     5  0.4850E+00  0.2789E-01  0.2788E-01  0.7607E-05  0.0000E+00  0.1579E+02  0.2017E+02  0.1310E+03  0.2040E+01  0.2039E+01  0.4390E+00  0.4388E+00  0.6324E+01  0.6323E+01  0.4725E-02  0.8037E-02  0.3149E-05  0.9703E-05  0.8656E-01  0.8693E-01  0.2434E-01  0.2404E-01  0.3071E+03  0.3065E+03  0.3965E+03  0.3733E+03  0.0000E+00  0.0000E+00  0.0000E+00  0.0000E+00  0.0000E+00  0.0000E+00  0.0000E+00  0.0000E+00  0.0000E+00  0.0000E+00  0.0000E+00  0.0000E+00  0.0000E+00  0.0000E+00  0.0000E+00  0.0000E+00  0.0000E+00  0.8370E+01  0.5258E+00  0.0000E+00  0.0000E+00
REACH    1        0     6  0.7469E-01  0.3751E-02  0.3750E-02  0.9589E-06  0.0000E+00  0.1397E+00  0.1397E+00  0.1996E+01  0.2707E+00  0.2706E+00  0.5853E-01  0.5850E-01  0.7901E+00  0.7899E+00  0.0000E+00  0.2883E-03  0.0000E+00  0.0000E+00  0.1277E-01  0.1279E-01  0.3377E-02  0.3331E-02  0.2902E+02  0.2897E+02  0.6909E+02  0.5621E+02  0.0000E+00  0.0000E+00  0.0000E+00  0.0000E+00  0.0000E+00  0.0000E+00  0.0000E+00  0.0000E+00  0.0000E+00  0.0000E+00  0.0000E+00  0.0000E+00  0.0000E+00  0.0000E+00  0.0000E+00  0.0000E+00  0.0000E+00  0.1061E+01  0.7129E-01  0.0000E+00  0.0000E+00
REACH    2        0     6  0.7223E-01  0.3652E-02  0.3651E-02  0.1128E-05  0.0000E+00  0.1899E+00  0.1899E+00  0.2800E+01  0.2883E+00  0.2882E+00  0.6238E-01  0.6234E-01  0.7903E+00  0.7901E+00  0.0000E+00  0.3481E-03  0.0000E+00  0.0000E+00  0.1014E-01  0.1017E-01  0.3497E-02  0.3438E-02  0.3933E+02  0.3925E+02  0.6564E+02  0.5228E+02  0.0000E+00  0.0000E+00  0.0000E+00  0.0000E+00  0.0000E+00  0.0000E+00  0.0000E+00  0.0000E+00  0.0000E+00  0.0000E+00  0.0000E+00  0.0000E+00  0.0000E+00  0.0000E+00  0.0000E+00  0.0000E+00  0.0000E+00  0.1079E+01  0.7252E-01  0.0000E+00  0.0000E+00
REACH    3        0     6  0.1220E+00  0.6193E-02  0.6191E-02  0.2590E-05  0.0000E+00  0.4277E+00  0.4277E+00  0.3756E+01  0.4969E+00  0.4966E+00  0.1074E+00  0.1074E+00  0.1399E+01  0.1398E+01  0.0000E+00  0.8441E-03  0.0000E+00  0.0000E+00  0.1399E-01  0.1407E-01  0.5790E-02  0.5667E-02  0.8807E+02  0.8779E+02  0.1113E+03  0.8662E+02  0.0000E+00  0.0000E+00  0.0000E+00  0.0000E+00  0.0000E+00  0.0000E+00  0.0000E+00  0.0000E+00  0.0000E+00  0.0000E+00  0.0000E+00  0.0000E+00  0.0000E+00  0.0000E+00  0.0000E+00  0.0000E+00  0.0000E+00  0.1896E+01  0.1214E+00  0.0000E+00  0.0000E+00
REACH    4        0     6  0.1150E+00  0.5846E-02  0.5842E-02  0.4555E-05  0.0000E+00  0.4124E+00  0.4124E+00  0.3813E+01  0.4922E+00  0.4918E+00  0.1066E+00  0.1065E+00  0.1283E+01  0.1282E+01  0.0000E+00  0.1335E-02  0.0000E+00  0.0000E+00  0.1241E-01  0.1248E-01  0.5912E-02  0.5782E-02  0.8538E+02  0.8510E+02  0.1032E+03  0.8108E+02  0.0000E+00  0.0000E+00  0.0000E+00  0.0000E+00  0.0000E+00  0.0000E+00  0.0000E+00  0.0000E+00  0.0000E+00  0.0000E+00  0.0000E+00  0.0000E+00  0.0000E+00  0.0000E+00  0.0000E+00  0.0000E+00  0.0000E+00  0.1775E+01  0.1190E+00  0.0000E+00  0.0000E+00
REACH    5        0     6  0.2578E+00  0.1310E-01  0.1309E-01  0.2659E-05  0.0000E+00  0.8494E+00  0.9578E+01  0.1285E+03  0.1047E+01  0.1047E+01  0.2258E+00  0.2258E+00  0.2994E+01  0.2994E+01  0.2179E-02  0.3192E-02  0.0000E+00  0.1567E-05  0.3336E-01  0.3345E-01  0.1195E-01  0.1187E-01  0.1745E+03  0.1743E+03  0.1898E+03  0.1846E+03  0.0000E+00  0.0000E+00  0.0000E+00  0.0000E+00  0.0000E+00  0.0000E+00  0.0000E+00  0.0000E+00  0.0000E+00  0.0000E+00  0.0000E+00  0.0000E+00  0.0000E+00  0.0000E+00  0.0000E+00  0.0000E+00  0.0000E+00  0.4044E+01  0.2592E+00  0.0000E+00  0.0000E+00
REACH    6        0     6  0.3337E+00  0.1692E-01  0.1692E-01  0.1177E-05  0.0000E+00  0.9769E+01  0.1176E+02  0.1302E+03  0.1338E+01  0.1338E+01  0.2887E+00  0.2886E+00  0.3815E+01  0.3814E+01  0.3540E-02  0.4002E-02  0.1567E-05  0.2229E-05  0.4553E-01  0.4557E-01  0.1533E-01  0.1529E-01  0.2136E+03  0.2135E+03  0.2407E+03  0.2395E+03  0.0000E+00  0.0000E+00  0.0000E+00  0.0000E+00  0.0000E+00  0.0000E+00  0.0000E+00  0.0000E+00  0.0000E+00  0.0000E+00  0.0000E+00  0.0000E+00  0.0000E+00  0.0000E+00  0.0000E+00  0.0000E+00  0.0000E+00  0.5156E+01  0.3342E+00  0.0000E+00  0.0000E+00
REACH    7        0     6  0.4850E+00  0.2459E-01  0.2459E-01  0.7715E-05  0.0000E+00  0.1202E+02  0.1750E+02  0.1272E+03  0.1868E+01  0.1868E+01  0.4025E+00  0.4023E+00  0.5567E+01  0.5565E+01  0.4290E-02  0.7381E-02  0.2229E-05  0.6906E-05  0.7437E-01  0.7470E-01  0.2284E-01  0.2249E-01  0.2673E+03  0.2668E+03  0.3706E+03  0.3537E+03  0.0000E+00  0.0000E+00  0.0000E+00  0.0000E+00  0.0000E+00  0.0000E+00  0.0000E+00  0.0000E+00  0.0000E+00  0.0000E+00  0.0000E+00  0.0000E+00  0.0000E+00  0.0000E+00  0.0000E+00  0.0000E+00  0.0000E+00  0.7440E+01  0.4770E+00  0.0000E+00  0.0000E+00
[...]
REACH    3        0    10  0.1220E+00  0.3327E-02  0.3325E-02  0.2241E-05  0.0000E+00  0.7004E+00  0.7004E+00  0.2146E+02  0.1038E+01  0.1038E+01  0.2260E+00  0.2258E+00  0.9406E+00  0.9401E+00  0.0000E+00  0.1014E-02  0.0000E+00  0.0000E+00  0.9909E-03  0.1109E-02  0.3027E-03  0.2907E-03  0.2021E+02  0.2015E+02  0.7105E+02  0.5278E+02  0.0000E+00  0.0000E+00  0.0000E+00  0.0000E+00  0.0000E+00  0.0000E+00  0.0000E+00  0.0000E+00  0.0000E+00  0.0000E+00  0.0000E+00  0.0000E+00  0.0000E+00  0.0000E+00  0.0000E+00  0.0000E+00  0.0000E+00  0.1979E+01  0.2269E+00  0.0000E+00  0.0000E+00
REACH    4        0    10  0.1150E+00  0.3173E-02  0.3169E-02  0.4044E-05  0.0000E+00  0.6833E+00  0.6833E+00  0.2195E+02  0.1047E+01  0.1046E+01  0.2280E+00  0.2277E+00  0.8397E+00  0.8389E+00  0.0000E+00  0.1785E-02  0.0000E+00  0.0000E+00  0.9304E-03  0.1156E-02  0.3038E-03  0.2808E-03  0.2002E+02  0.1992E+02  0.6755E+02  0.5002E+02  0.0000E+00  0.0000E+00  0.0000E+00  0.0000E+00  0.0000E+00  0.0000E+00  0.0000E+00  0.0000E+00  0.0000E+00  0.0000E+00  0.0000E+00  0.0000E+00  0.0000E+00  0.0000E+00  0.0000E+00  0.0000E+00  0.0000E+00  0.1887E+01  0.2289E+00  0.0000E+00  0.0000E+00
REACH    5        0    10  0.2578E+00  0.7006E-02  0.7003E-02  0.2868E-05  0.0000E+00  0.1392E+01  0.3171E+01  0.8858E+02  0.2115E+01  0.2114E+01  0.4601E+00  0.4599E+00  0.2059E+01  0.2058E+01  0.2799E-02  0.4210E-02  0.0000E+00  0.2169E-04  0.3240E-02  0.3433E-02  0.7515E-03  0.7316E-03  0.4055E+02  0.4046E+02  0.1139E+03  0.1120E+03  0.0000E+00  0.0000E+00  0.0000E+00  0.0000E+00  0.0000E+00  0.0000E+00  0.0000E+00  0.0000E+00  0.0000E+00  0.0000E+00  0.0000E+00  0.0000E+00  0.0000E+00  0.0000E+00  0.0000E+00  0.0000E+00  0.0000E+00  0.4177E+01  0.4633E+00  0.0000E+00  0.0000E+00
REACH    6        0    10  0.3337E+00  0.9069E-02  0.9068E-02  0.1275E-05  0.0000E+00  0.3487E+01  0.4344E+01  0.9280E+02  0.2674E+01  0.2674E+01  0.5816E+00  0.5816E+00  0.2632E+01  0.2632E+01  0.4627E-02  0.5249E-02  0.2169E-04  0.3424E-04  0.5068E-02  0.5156E-02  0.9667E-03  0.9580E-03  0.5035E+02  0.5031E+02  0.1463E+03  0.1460E+03  0.0000E+00  0.0000E+00  0.0000E+00  0.0000E+00  0.0000E+00  0.0000E+00  0.0000E+00  0.0000E+00  0.0000E+00  0.0000E+00  0.0000E+00  0.0000E+00  0.0000E+00  0.0000E+00  0.0000E+00  0.0000E+00  0.0000E+00  0.5311E+01  0.5867E+00  0.0000E+00  0.0000E+00
REACH    7        0    10  0.4850E+00  0.1313E-01  0.1312E-01  0.8339E-05  0.0000E+00  0.4786E+01  0.6468E+01  0.9416E+02  0.3616E+01  0.3614E+01  0.7859E+00  0.7853E+00  0.3863E+01  0.3861E+01  0.5584E-02  0.9739E-02  0.3424E-04  0.9115E-04  0.9117E-02  0.9720E-02  0.2523E-02  0.2385E-02  0.6667E+02  0.6643E+02  0.2237E+03  0.2135E+03  0.0000E+00  0.0000E+00  0.0000E+00  0.0000E+00  0.0000E+00  0.0000E+00  0.0000E+00  0.0000E+00  0.0000E+00  0.0000E+00  0.0000E+00  0.0000E+00  0.0000E+00  0.0000E+00  0.0000E+00  0.0000E+00  0.0000E+00  0.7485E+01  0.7950E+00  0.0000E+00  0.0000E+00
REACH    1        0    11  0.7469E-01  0.7352E-02  0.7351E-02  0.1494E-05  0.0000E+00  0.1688E+02  0.1688E+02  0.1991E+03  0.3799E+02  0.3798E+02  0.8249E+01  0.8245E+01  0.2400E+01  0.2400E+01  0.0000E+00  0.7119E-02  0.0000E+00  0.0000E+00  0.3771E-01  0.4017E-01  0.4713E+00  0.4650E+00  0.3059E+04  0.3054E+04  0.9927E+02  0.3892E+02  0.0000E+00  0.0000E+00  0.0000E+00  0.0000E+00  0.0000E+00  0.0000E+00  0.0000E+00  0.0000E+00  0.0000E+00  0.0000E+00  0.0000E+00  0.0000E+00  0.0000E+00  0.0000E+00  0.0000E+00  0.0000E+00  0.0000E+00  0.4038E+02  0.8285E+01  0.0000E+00  0.0000E+00
REACH    2        0    11  0.7223E-01  0.7122E-02  0.7120E-02  0.1818E-05  0.0000E+00  0.2293E+02  0.2293E+02  0.2793E+03  0.4232E+02  0.4231E+02  0.9204E+01  0.9199E+01  0.2351E+01  0.2350E+01  0.0000E+00  0.9835E-02  0.0000E+00  0.0000E+00  0.3120E-01  0.3462E-01  0.5175E+00  0.5089E+00  0.3856E+04  0.3847E+04  0.9677E+02  0.3779E+02  0.0000E+00  0.0000E+00  0.0000E+00  0.0000E+00  0.0000E+00  0.0000E+00  0.0000E+00  0.0000E+00  0.0000E+00  0.0000E+00  0.0000E+00  0.0000E+00  0.0000E+00  0.0000E+00  0.0000E+00  0.0000E+00  0.0000E+00  0.4466E+02  0.9233E+01  0.0000E+00  0.0000E+00
REACH    3        0    11  0.1220E+00  0.1198E-01  0.1197E-01  0.3993E-05  0.0000E+00  0.5178E+02  0.5178E+02  0.3767E+03  0.8105E+02  0.8100E+02  0.1762E+02  0.1761E+02  0.4092E+01  0.4090E+01  0.0000E+00  0.2367E-01  0.0000E+00  0.0000E+00  0.4734E-01  0.5564E-01  0.9603E+00  0.9422E+00  0.7921E+04  0.7898E+04  0.1670E+03  0.6417E+02  0.0000E+00  0.0000E+00  0.0000E+00  0.0000E+00  0.0000E+00  0.0000E+00  0.0000E+00  0.0000E+00  0.0000E+00  0.0000E+00  0.0000E+00  0.0000E+00  0.0000E+00  0.0000E+00  0.0000E+00  0.0000E+00  0.0000E+00  0.8512E+02  0.1766E+02  0.0000E+00  0.0000E+00
REACH    4        0    11  0.1150E+00  0.1136E-01  0.1135E-01  0.6850E-05  0.0000E+00  0.4972E+02  0.4972E+02  0.3808E+03  0.7804E+02  0.7798E+02  0.1698E+02  0.1696E+02  0.3763E+01  0.3761E+01  0.0000E+00  0.3402E-01  0.0000E+00  0.0000E+00  0.4002E-01  0.5183E-01  0.9472E+00  0.9188E+00  0.7782E+04  0.7752E+04  0.1546E+03  0.5975E+02  0.0000E+00  0.0000E+00  0.0000E+00  0.0000E+00  0.0000E+00  0.0000E+00  0.0000E+00  0.0000E+00  0.0000E+00  0.0000E+00  0.0000E+00  0.0000E+00  0.0000E+00  0.0000E+00  0.0000E+00  0.0000E+00  0.0000E+00  0.8177E+02  0.1702E+02  0.0000E+00  0.0000E+00
REACH    5        0    11  0.2578E+00  0.2529E-01  0.2529E-01  0.4629E-05  0.0000E+00  0.1023E+03  0.1496E+02  0.1450E+03  0.1632E+03  0.1631E+03  0.3546E+02  0.3544E+02  0.8642E+01  0.8640E+01  0.5770E-01  0.8853E-01  0.0000E+00  0.3408E-05  0.1332E+00  0.1440E+00  0.1905E+01  0.1886E+01  0.1580E+05  0.1577E+05  0.1568E+03  0.1362E+03  0.0000E+00  0.0000E+00  0.0000E+00  0.0000E+00  0.0000E+00  0.0000E+00  0.0000E+00  0.0000E+00  0.0000E+00  0.0000E+00  0.0000E+00  0.0000E+00  0.0000E+00  0.0000E+00  0.0000E+00  0.0000E+00  0.0000E+00  0.1718E+03  0.3558E+02  0.0000E+00  0.0000E+00
REACH    6        0    11  0.3337E+00  0.3274E-01  0.3273E-01  0.2032E-05  0.0000E+00  0.3797E+02  0.2008E+02  0.1423E+03  0.2061E+03  0.2061E+03  0.4479E+02  0.4478E+02  0.1111E+02  0.1111E+02  0.9837E-01  0.1119E+00  0.3408E-05  0.5076E-05  0.1852E+00  0.1899E+00  0.2403E+01  0.2395E+01  0.1963E+05  0.1961E+05  0.1789E+03  0.1758E+03  0.0000E+00  0.0000E+00  0.0000E+00  0.0000E+00  0.0000E+00  0.0000E+00  0.0000E+00  0.0000E+00  0.0000E+00  0.0000E+00  0.0000E+00  0.0000E+00  0.0000E+00  0.0000E+00  0.0000E+00  0.0000E+00  0.0000E+00  0.2173E+03  0.4497E+02  0.0000E+00  0.0000E+00
REACH    7        0    11  0.4850E+00  0.4755E-01  0.4753E-01  0.1309E-04  0.0000E+00  0.5150E+02  0.2996E+02  0.1369E+03  0.2781E+03  0.2779E+03  0.6038E+02  0.6034E+02  0.1604E+02  0.1604E+02  0.1190E+00  0.2054E+00  0.5076E-05  0.1540E-04  0.2861E+00  0.3164E+00  0.3267E+01  0.3223E+01  0.2523E+05  0.2515E+05  0.3238E+03  0.2547E+03  0.0000E+00  0.0000E+00  0.0000E+00  0.0000E+00  0.0000E+00  0.0000E+00  0.0000E+00  0.0000E+00  0.0000E+00  0.0000E+00  0.0000E+00  0.0000E+00  0.0000E+00  0.0000E+00  0.0000E+00  0.0000E+00  0.0000E+00  0.2942E+03  0.6066E+02  0.0000E+00  0.0000E+00
REACH    1        0    12  0.7469E-01  0.8014E-02  0.8012E-02  0.1545E-05  0.0000E+00  0.3552E+02  0.3552E+02  0.5860E+03  0.5323E+02  0.5321E+02  0.1156E+02  0.1156E+02  0.2340E+01  0.2340E+01  0.0000E+00  0.9502E-02  0.0000E+00  0.0000E+00  0.2697E-01  0.3030E-01  0.3528E+00  0.3475E+00  0.4046E+04  0.4039E+04  0.1270E+03  0.4380E+02  0.0000E+00  0.0000E+00  0.0000E+00  0.0000E+00  0.0000E+00  0.0000E+00  0.0000E+00  0.0000E+00  0.0000E+00  0.0000E+00  0.0000E+00  0.0000E+00  0.0000E+00  0.0000E+00  0.0000E+00  0.0000E+00  0.0000E+00  0.5556E+02  0.1159E+02  0.0000E+00  0.0000E+00
REACH    2        0    12  0.7223E-01  0.7758E-02  0.7756E-02  0.1753E-05  0.0000E+00  0.4803E+02  0.4803E+02  0.8201E+03  0.5561E+02  0.5558E+02  0.1210E+02  0.1210E+02  0.2271E+01  0.2270E+01  0.0000E+00  0.1032E-01  0.0000E+00  0.0000E+00  0.2102E-01  0.2464E-01  0.3471E+00  0.3412E+00  0.5017E+04  0.5007E+04  0.1248E+03  0.4310E+02  0.0000E+00  0.0000E+00  0.0000E+00  0.0000E+00  0.0000E+00  0.0000E+00  0.0000E+00  0.0000E+00  0.0000E+00  0.0000E+00  0.0000E+00  0.0000E+00  0.0000E+00  0.0000E+00  0.0000E+00  0.0000E+00  0.0000E+00  0.5786E+02  0.1212E+02  0.0000E+00  0.0000E+00
REACH    3        0    12  0.1220E+00  0.1302E-01  0.1302E-01  0.2190E-05  0.0000E+00  0.1076E+03  0.1076E+03  0.1100E+04  0.9902E+02  0.9899E+02  0.2156E+02  0.2155E+02  0.4104E+01  0.4103E+01  0.0000E+00  0.1925E-01  0.0000E+00  0.0000E+00  0.3050E-01  0.3723E-01  0.5820E+00  0.5726E+00  0.1018E+05  0.1016E+05  0.2160E+03  0.7362E+02  0.0000E+00  0.0000E+00  0.0000E+00  0.0000E+00  0.0000E+00  0.0000E+00  0.0000E+00  0.0000E+00  0.0000E+00  0.0000E+00  0.0000E+00  0.0000E+00  0.0000E+00  0.0000E+00  0.0000E+00  0.0000E+00  0.0000E+00  0.1031E+03  0.2158E+02  0.0000E+00  0.0000E+00
REACH    4        0    12  0.1150E+00  0.1237E-01  0.1237E-01  0.3917E-05  0.0000E+00  0.1040E+03  0.1040E+03  0.1116E+04  0.9772E+02  0.9767E+02  0.2129E+02  0.2127E+02  0.3605E+01  0.3604E+01  0.0000E+00  0.3364E-01  0.0000E+00  0.0000E+00  0.2499E-01  0.3672E-01  0.5950E+00  0.5773E+00  0.1009E+05  0.1005E+05  0.2006E+03  0.6920E+02  0.0000E+00  0.0000E+00  0.0000E+00  0.0000E+00  0.0000E+00  0.0000E+00  0.0000E+00  0.0000E+00  0.0000E+00  0.0000E+00  0.0000E+00  0.0000E+00  0.0000E+00  0.0000E+00  0.0000E+00  0.0000E+00  0.0000E+00  0.1013E+03  0.2131E+02  0.0000E+00  0.0000E+00
REACH    5        0    12  0.2578E+00  0.2748E-01  0.2748E-01  0.2674E-05  0.0000E+00  0.2132E+03  0.2314E+02  0.1934E+03  0.2023E+03  0.2023E+03  0.4401E+02  0.4400E+02  0.9014E+01  0.9013E+01  0.5289E-01  0.7852E-01  0.0000E+00  0.3370E-05  0.9825E-01  0.1072E+00  0.1181E+01  0.1170E+01  0.2038E+05  0.2036E+05  0.1815E+03  0.1555E+03  0.0000E+00  0.0000E+00  0.0000E+00  0.0000E+00  0.0000E+00  0.0000E+00  0.0000E+00  0.0000E+00  0.0000E+00  0.0000E+00  0.0000E+00  0.0000E+00  0.0000E+00  0.0000E+00  0.0000E+00  0.0000E+00  0.0000E+00  0.2113E+03  0.4411E+02  0.0000E+00  0.0000E+00
REACH    6        0    12  0.3337E+00  0.3559E-01  0.3559E-01  0.1193E-05  0.0000E+00  0.7130E+02  0.2851E+02  0.1823E+03  0.2588E+03  0.2588E+03  0.5630E+02  0.5630E+02  0.1141E+02  0.1141E+02  0.8885E-01  0.1013E+00  0.3370E-05  0.5192E-05  0.1366E+00  0.1410E+00  0.1518E+01  0.1514E+01  0.2538E+05  0.2537E+05  0.2045E+03  0.2006E+03  0.0000E+00  0.0000E+00  0.0000E+00  0.0000E+00  0.0000E+00  0.0000E+00  0.0000E+00  0.0000E+00  0.0000E+00  0.0000E+00  0.0000E+00  0.0000E+00  0.0000E+00  0.0000E+00  0.0000E+00  0.0000E+00  0.0000E+00  0.2703E+03  0.5644E+02  0.0000E+00  0.0000E+00
REACH    7        0    12  0.4850E+00  0.5168E-01  0.5167E-01  0.7674E-05  0.0000E+00  0.9396E+02  0.4203E+02  0.1893E+03  0.3567E+03  0.3566E+03  0.7754E+02  0.7750E+02  0.1680E+02  0.1680E+02  0.1108E+00  0.1970E+00  0.5192E-05  0.1444E-04  0.2278E+00  0.2581E+00  0.2140E+01  0.2109E+01  0.3270E+05  0.3262E+05  0.3815E+03  0.2888E+03  0.0000E+00  0.0000E+00  0.0000E+00  0.0000E+00  0.0000E+00  0.0000E+00  0.0000E+00  0.0000E+00  0.0000E+00  0.0000E+00  0.0000E+00  0.0000E+00  0.0000E+00  0.0000E+00  0.0000E+00  0.0000E+00  0.0000E+00  0.3736E+03  0.7776E+02  0.0000E+00  0.0000E+00
REACH    1        0  2016  0.7469E-01  0.5105E-02  0.5104E-02  0.1042E-05  0.0000E+00  0.5802E+02  0.5802E+02  0.7814E+02  0.1040E+03  0.1040E+03  0.2260E+02  0.2259E+02  0.9658E+01  0.9655E+01  0.0000E+00  0.2107E-01  0.0000E+00  0.0000E+00  0.2311E+00  0.2376E+00  0.9073E+00  0.8948E+00  0.7663E+04  0.7649E+04  0.1085E+04  0.7494E+03  0.0000E+00  0.0000E+00  0.0000E+00  0.0000E+00  0.0000E+00  0.0000E+00  0.0000E+00  0.0000E+00  0.0000E+00  0.0000E+00  0.0000E+00  0.0000E+00  0.0000E+00  0.0000E+00  0.0000E+00  0.0000E+00  0.0000E+00  0.1137E+03  0.2283E+02  0.0000E+00  0.0000E+00
REACH    2        0  2016  0.7223E-01  0.4945E-02  0.4944E-02  0.1249E-05  0.0000E+00  0.7853E+02  0.7853E+02  0.1092E+03  0.1125E+03  0.1124E+03  0.2448E+02  0.2446E+02  0.9413E+01  0.9410E+01  0.0000E+00  0.2581E-01  0.0000E+00  0.0000E+00  0.1868E+00  0.1948E+00  0.9580E+00  0.9422E+00  0.9597E+04  0.9577E+04  0.1032E+04  0.6872E+03  0.0000E+00  0.0000E+00  0.0000E+00  0.0000E+00  0.0000E+00  0.0000E+00  0.0000E+00  0.0000E+00  0.0000E+00  0.0000E+00  0.0000E+00  0.0000E+00  0.0000E+00  0.0000E+00  0.0000E+00  0.0000E+00  0.0000E+00  0.1219E+03  0.2466E+02  0.0000E+00  0.0000E+00
REACH    3        0  2016  0.1220E+00  0.8330E-02  0.8327E-02  0.2528E-05  0.0000E+00  0.1763E+03  0.1763E+03  0.1463E+03  0.2092E+03  0.2091E+03  0.4551E+02  0.4548E+02  0.1826E+02  0.1825E+02  0.0000E+00  0.5666E-01  0.0000E+00  0.0000E+00  0.2810E+00  0.2986E+00  0.1732E+01  0.1702E+01  0.1966E+05  0.1962E+05  0.1731E+04  0.1104E+04  0.0000E+00  0.0000E+00  0.0000E+00  0.0000E+00  0.0000E+00  0.0000E+00  0.0000E+00  0.0000E+00  0.0000E+00  0.0000E+00  0.0000E+00  0.0000E+00  0.0000E+00  0.0000E+00  0.0000E+00  0.0000E+00  0.0000E+00  0.2274E+03  0.4578E+02  0.0000E+00  0.0000E+00
REACH    4        0  2016  0.1150E+00  0.7883E-02  0.7878E-02  0.4485E-05  0.0000E+00  0.1701E+03  0.1701E+03  0.1485E+03  0.2041E+03  0.2039E+03  0.4444E+02  0.4440E+02  0.1502E+02  0.1501E+02  0.0000E+00  0.9172E-01  0.0000E+00  0.0000E+00  0.2324E+00  0.2602E+00  0.1725E+01  0.1674E+01  0.1940E+05  0.1933E+05  0.1612E+04  0.1033E+04  0.0000E+00  0.0000E+00  0.0000E+00  0.0000E+00  0.0000E+00  0.0000E+00  0.0000E+00  0.0000E+00  0.0000E+00  0.0000E+00  0.0000E+00  0.0000E+00  0.0000E+00  0.0000E+00  0.0000E+00  0.0000E+00  0.0000E+00  0.2190E+03  0.4466E+02  0.0000E+00  0.0000E+00
REACH    5        0  2016  0.2578E+00  0.1758E-01  0.1758E-01  0.2992E-05  0.0000E+00  0.3491E+03  0.1485E+03  0.1145E+03  0.4252E+03  0.4251E+03  0.9245E+02  0.9242E+02  0.4396E+02  0.4395E+02  0.1484E+00  0.2237E+00  0.0000E+00  0.1008E-03  0.7383E+00  0.7617E+00  0.3474E+01  0.3441E+01  0.3930E+05  0.3924E+05  0.2466E+04  0.2359E+04  0.0000E+00  0.0000E+00  0.0000E+00  0.0000E+00  0.0000E+00  0.0000E+00  0.0000E+00  0.0000E+00  0.0000E+00  0.0000E+00  0.0000E+00  0.0000E+00  0.0000E+00  0.0000E+00  0.0000E+00  0.0000E+00  0.0000E+00  0.4693E+03  0.9318E+02  0.0000E+00  0.0000E+00
REACH    6        0  2016  0.3337E+00  0.2276E-01  0.2276E-01  0.1326E-05  0.0000E+00  0.2273E+03  0.1959E+03  0.1143E+03  0.5394E+03  0.5394E+03  0.1173E+03  0.1173E+03  0.5384E+02  0.5384E+02  0.2495E+00  0.2838E+00  0.1008E-03  0.1564E-03  0.9988E+00  0.1010E+01  0.4400E+01  0.4386E+01  0.4885E+05  0.4882E+05  0.3103E+04  0.3083E+04  0.0000E+00  0.0000E+00  0.0000E+00  0.0000E+00  0.0000E+00  0.0000E+00  0.0000E+00  0.0000E+00  0.0000E+00  0.0000E+00  0.0000E+00  0.0000E+00  0.0000E+00  0.0000E+00  0.0000E+00  0.0000E+00  0.0000E+00  0.5935E+03  0.1183E+03  0.0000E+00  0.0000E+00
REACH    7        0  2016  0.4850E+00  0.3305E-01  0.3305E-01  0.8628E-05  0.0000E+00  0.3031E+03  0.2812E+03  0.1154E+03  0.7336E+03  0.7334E+03  0.1594E+03  0.1593E+03  0.8327E+02  0.8324E+02  0.3049E+00  0.5338E+00  0.1564E-03  0.4477E-03  0.1611E+01  0.1683E+01  0.6156E+01  0.6068E+01  0.6280E+05  0.6264E+05  0.4975E+04  0.4589E+04  0.0000E+00  0.0000E+00  0.0000E+00  0.0000E+00  0.0000E+00  0.0000E+00  0.0000E+00  0.0000E+00  0.0000E+00  0.0000E+00  0.0000E+00  0.0000E+00  0.0000E+00  0.0000E+00  0.0000E+00  0.0000E+00  0.0000E+00  0.8171E+03  0.1610E+03  0.0000E+00  0.0000E+00
REACH    1        0   4.0  0.7469E-01  0.5921E-02  0.5920E-02  0.1046E-05  0.0000E+00  0.1851E+03  0.1851E+03  0.1625E+03  0.2970E+03  0.2969E+03  0.6508E+02  0.6506E+02  0.1231E+02  0.1231E+02  0.0000E+00  0.4852E-01  0.0000E+00  0.0000E+00  0.3212E+00  0.3378E+00  0.3784E+01  0.3742E+01  0.2896E+05  0.2891E+05  0.1139E+04  0.7291E+03  0.0000E+00  0.0000E+00  0.0000E+00  0.0000E+00  0.0000E+00  0.0000E+00  0.0000E+00  0.0000E+00  0.0000E+00  0.0000E+00  0.0000E+00  0.0000E+00  0.0000E+00  0.0000E+00  0.0000E+00  0.0000E+00  0.0000E+00  0.3093E+03  0.6540E+02  0.0000E+00  0.0000E+00
REACH    2        0   4.0  0.7223E-01  0.5735E-02  0.5734E-02  0.1267E-05  0.0000E+00  0.2514E+03  0.2514E+03  0.2281E+03  0.2962E+03  0.2961E+03  0.6504E+02  0.6501E+02  0.1199E+02  0.1199E+02  0.0000E+00  0.5569E-01  0.0000E+00  0.0000E+00  0.2452E+00  0.2642E+00  0.3657E+01  0.3608E+01  0.3646E+05  0.3640E+05  0.1096E+04  0.6833E+03  0.0000E+00  0.0000E+00  0.0000E+00  0.0000E+00  0.0000E+00  0.0000E+00  0.0000E+00  0.0000E+00  0.0000E+00  0.0000E+00  0.0000E+00  0.0000E+00  0.0000E+00  0.0000E+00  0.0000E+00  0.0000E+00  0.0000E+00  0.3081E+03  0.6528E+02  0.0000E+00  0.0000E+00
REACH    3        0   4.0  0.1220E+00  0.9658E-02  0.9656E-02  0.2543E-05  0.0000E+00  0.5661E+03  0.5661E+03  0.3066E+03  0.4943E+03  0.4941E+03  0.1087E+03  0.1086E+03  0.2264E+02  0.2263E+02  0.0000E+00  0.1294E+00  0.0000E+00  0.0000E+00  0.3586E+00  0.4030E+00  0.5800E+01  0.5703E+01  0.7499E+05  0.7480E+05  0.1864E+04  0.1124E+04  0.0000E+00  0.0000E+00  0.0000E+00  0.0000E+00  0.0000E+00  0.0000E+00  0.0000E+00  0.0000E+00  0.0000E+00  0.0000E+00  0.0000E+00  0.0000E+00  0.0000E+00  0.0000E+00  0.0000E+00  0.0000E+00  0.0000E+00  0.5169E+03  0.1090E+03  0.0000E+00  0.0000E+00
REACH    4        0   4.0  0.1150E+00  0.9142E-02  0.9138E-02  0.4532E-05  0.0000E+00  0.5452E+03  0.5452E+03  0.3108E+03  0.4857E+03  0.4854E+03  0.1069E+03  0.1068E+03  0.1914E+02  0.1913E+02  0.0000E+00  0.2190E+00  0.0000E+00  0.0000E+00  0.2881E+00  0.3626E+00  0.5889E+01  0.5712E+01  0.7381E+05  0.7350E+05  0.1729E+04  0.1052E+04  0.0000E+00  0.0000E+00  0.0000E+00  0.0000E+00  0.0000E+00  0.0000E+00  0.0000E+00  0.0000E+00  0.0000E+00  0.0000E+00  0.0000E+00  0.0000E+00  0.0000E+00  0.0000E+00  0.0000E+00  0.0000E+00  0.0000E+00  0.5047E+03  0.1072E+03  0.0000E+00  0.0000E+00
REACH    5        0   4.0  0.2578E+00  0.2039E-01  0.2038E-01  0.2972E-05  0.0000E+00  0.1120E+04  0.1809E+03  0.1288E+03  0.1018E+04  0.1018E+04  0.2237E+03  0.2236E+03  0.5336E+02  0.5335E+02  0.3484E+00  0.5130E+00  0.0000E+00  0.1032E-03  0.1033E+01  0.1090E+01  0.1183E+02  0.1173E+02  0.1497E+06  0.1495E+06  0.2530E+04  0.2389E+04  0.0000E+00  0.0000E+00  0.0000E+00  0.0000E+00  0.0000E+00  0.0000E+00  0.0000E+00  0.0000E+00  0.0000E+00  0.0000E+00  0.0000E+00  0.0000E+00  0.0000E+00  0.0000E+00  0.0000E+00  0.0000E+00  0.0000E+00  0.1072E+04  0.2247E+03  0.0000E+00  0.0000E+00
REACH    6        0   4.0  0.3337E+00  0.2639E-01  0.2639E-01  0.1309E-05  0.0000E+00  0.4330E+03  0.2362E+03  0.1301E+03  0.1321E+04  0.1321E+04  0.2900E+03  0.2900E+03  0.6594E+02  0.6593E+02  0.5687E+00  0.6457E+00  0.1032E-03  0.1597E-03  0.1410E+01  0.1436E+01  0.1541E+02  0.1537E+02  0.1860E+06  0.1859E+06  0.3133E+04  0.3107E+04  0.0000E+00  0.0000E+00  0.0000E+00  0.0000E+00  0.0000E+00  0.0000E+00  0.0000E+00  0.0000E+00  0.0000E+00  0.0000E+00  0.0000E+00  0.0000E+00  0.0000E+00  0.0000E+00  0.0000E+00  0.0000E+00  0.0000E+00  0.1387E+04  0.2914E+03  0.0000E+00  0.0000E+00
REACH    7        0   4.0  0.4850E+00  0.3832E-01  0.3831E-01  0.8476E-05  0.0000E+00  0.5794E+03  0.3349E+03  0.1283E+03  0.1879E+04  0.1878E+04  0.4119E+03  0.4117E+03  0.1007E+03  0.1007E+03  0.6942E+00  0.1254E+01  0.1597E-03  0.5239E-03  0.2278E+01  0.2471E+01  0.2238E+02  0.2209E+02  0.2389E+06  0.2382E+06  0.5051E+04  0.4577E+04  0.0000E+00  0.0000E+00  0.0000E+00  0.0000E+00  0.0000E+00  0.0000E+00  0.0000E+00  0.0000E+00  0.0000E+00  0.0000E+00  0.0000E+00  0.0000E+00  0.0000E+00  0.0000E+00  0.0000E+00  0.0000E+00  0.0000E+00  0.1980E+04  0.4142E+03  0.0000E+00  0.0000E+00
