1
    SWAT Dec 23 2016    VER 2016/Rev 664                                                                 0/ 0/   0      0: 0: 0

    General Input/Output section (file.cio):                                        
    2/11/2020 17:04:58 QSWAT Workflow v1.5.2                                        
                                                                                    


       SUB      GIS  MON   AREAkm2  PRECIPmm SNOMELTmm     PETmm      ETmm      SWmm    PERCmm    SURQmm    GW_Qmm    WYLDmm  SYLDt/ha ORGNkg/ha ORGPkg/haNSURQkg/ha SOLPkg/ha SEDPkg/ha LAT Q(mm)LATNO3kg/hGWNO3kg/haCHOLAmic/LCBODU mg/L DOXQ mg/L TNO3kg/ha   QTILEmm TVAPkg/ha
BIGSUB   1        0    1.74695E-01   576.600     0.000   117.370    87.220   100.617    14.004   161.972     3.292   459.540    11.539    23.794     2.906     0.007     0.013     2.331   294.081     0.411     0.001 .00000E+00 0.000E+00 0.000E+00 0.000E+00 0.000E+00 0.000E+00
BIGSUB   2        0    1.72232E-01   576.600     0.000   117.363    87.425   100.962    12.298   157.838     2.945   460.345    16.348    27.130     3.313     0.005     0.010     2.666   299.392     0.417     0.001 .00000E+00 0.000E+00 0.000E+00 0.000E+00 0.000E+00 0.000E+00
BIGSUB   3        0    1.12200E+00   576.600     0.000   117.376    87.652   107.919    13.827   146.595     4.078   459.366    21.786    28.483     3.477     0.005     0.008     2.803   308.490     0.440     0.001 .00000E+00 0.000E+00 0.000E+00 0.000E+00 0.000E+00 0.000E+00
BIGSUB   4        0    1.11502E+00   576.600     0.000   117.394    87.558   100.741    10.704   155.488     2.376   460.954    22.284    30.026     3.666     0.004     0.008     2.958   302.942     0.421     0.001 .00000E+00 0.000E+00 0.000E+00 0.000E+00 0.000E+00 0.000E+00
BIGSUB   5        0    1.20828E-01   576.600     0.000   117.313    86.617   153.238    56.117   111.007    25.029   441.736     1.719     7.352     0.899     0.033     0.031     0.684   304.730     0.707     0.006 .00000E+00 0.000E+00 0.000E+00 0.000E+00 0.000E+00 0.000E+00
BIGSUB   6        0    1.35910E-02   576.600     0.000   117.297    88.058   160.794    74.137   124.983    34.590   434.129     0.708     6.131     0.748     0.016     0.035     0.556   273.218     0.391     0.008 .00000E+00 0.000E+00 0.000E+00 0.000E+00 0.000E+00 0.000E+00
BIGSUB   7        0    1.76644E-01   576.600     0.000   117.314    88.066   114.778    26.722   154.442    10.390   453.558     9.658    20.637     2.520     0.029     0.017     2.008   288.277     0.467     0.003 .00000E+00 0.000E+00 0.000E+00 0.000E+00 0.000E+00 0.000E+00
BIGSUB   1        0    2.74695E-01   144.700     0.000   106.839    67.662    52.895     4.499    42.171     4.078   134.376     5.828     6.300     0.769     0.000     0.002     0.618    87.884     0.117     0.001 .00000E+00 0.000E+00 0.000E+00 0.000E+00 0.000E+00 0.000E+00
BIGSUB   2        0    2.72232E-01   144.700     0.000   106.822    68.299    52.641     3.981    41.275     3.498   134.405     8.256     6.697     0.818     0.000     0.002     0.660    89.420     0.121     0.001 .00000E+00 0.000E+00 0.000E+00 0.000E+00 0.000E+00 0.000E+00
BIGSUB   3        0    2.12200E+00   144.700     0.000   106.851    68.779    59.121     4.339    38.645     4.954   135.902    11.025     6.465     0.789     0.000     0.001     0.637    92.057     0.126     0.001 .00000E+00 0.000E+00 0.000E+00 0.000E+00 0.000E+00 0.000E+00
BIGSUB   4        0    2.11502E+00   144.700     0.000   106.892    68.693    52.058     3.507    40.760     2.792   134.253    11.255     6.811     0.831     0.000     0.001     0.673    90.516     0.123     0.001 .00000E+00 0.000E+00 0.000E+00 0.000E+00 0.000E+00 0.000E+00
BIGSUB   5        0    2.20828E-01   144.700     0.000   106.707    68.876   103.829    15.604    29.859    30.465   151.576     0.910     2.576     0.315     0.003     0.007     0.238    90.147     0.166     0.008 .00000E+00 0.000E+00 0.000E+00 0.000E+00 0.000E+00 0.000E+00
BIGSUB   6        0    2.35910E-02   144.700     0.000   106.671    66.171   114.283    20.499    32.764    41.340   156.556     0.410     2.485     0.303     0.001     0.008     0.225    80.954     0.094     0.011 .00000E+00 0.000E+00 0.000E+00 0.000E+00 0.000E+00 0.000E+00
BIGSUB   7        0    2.76644E-01   144.700     0.000   106.710    68.639    66.112     7.861    40.620    12.264   139.286     4.897     5.648     0.690     0.003     0.003     0.549    85.886     0.126     0.004 .00000E+00 0.000E+00 0.000E+00 0.000E+00 0.000E+00 0.000E+00
BIGSUB   1        0    3.74695E-01    93.800     0.000   115.426    83.580    24.125     0.000     0.055     3.153    42.406     0.000     0.000     0.000     0.000     0.000     0.000    38.918     0.000     0.000 .00000E+00 0.000E+00 0.000E+00 0.000E+00 0.000E+00 0.000E+00
BIGSUB   2        0    3.72232E-01    93.800     0.000   115.405    83.629    23.504     0.000     0.031     2.647    42.184     0.000     0.000     0.000     0.000     0.000     0.000    39.260     0.000     0.000 .00000E+00 0.000E+00 0.000E+00 0.000E+00 0.000E+00 0.000E+00
BIGSUB   3        0    3.12200E+00    93.800     0.000   115.441    84.260    29.650     0.000     0.000     3.375    42.652     0.000     0.000     0.000     0.000     0.000     0.000    38.995     0.034     0.000 .00000E+00 0.000E+00 0.000E+00 0.000E+00 0.000E+00 0.000E+00
BIGSUB   4        0    3.11502E+00    93.800     0.000   115.491    83.648    22.632     0.000     0.000     2.056    41.831     0.000     0.000     0.000     0.000     0.000     0.000    39.562     0.000     0.000 .00000E+00 0.000E+00 0.000E+00 0.000E+00 0.000E+00 0.000E+00
BIGSUB   5        0    3.20828E-01    93.800     0.000   115.265    90.343    75.538     0.000     0.315    23.171    56.124     0.000     0.000     0.000     0.000     0.000     0.000    31.415     0.834     0.003 .00000E+00 0.000E+00 0.000E+00 0.000E+00 0.000E+00 0.000E+00
BIGSUB   6        0    3.35910E-02    93.800     0.000   115.221    88.394    91.957     0.000     0.994    31.756    61.125     0.000     0.000     0.000     0.000     0.000     0.000    26.727     0.001     0.004 .00000E+00 0.000E+00 0.000E+00 0.000E+00 0.000E+00 0.000E+00
BIGSUB   7        0    3.76644E-01    93.800     0.000   115.268    84.958    38.695     0.008     0.933     9.088    45.899     0.000     0.000     0.000     0.056     0.000     0.000    35.302     0.159     0.001 .00000E+00 0.000E+00 0.000E+00 0.000E+00 0.000E+00 0.000E+00
BIGSUB   1        0    4.74695E-01   238.900     0.000   112.392    59.367    51.395     0.000    30.040     0.546   138.124     0.015     0.026     0.003     0.001     0.002     0.002   107.308     0.025     0.000 .00000E+00 0.000E+00 0.000E+00 0.000E+00 0.000E+00 0.000E+00
BIGSUB   2        0    4.72232E-01   238.900     0.000   112.388    58.497    51.205     0.000    28.483     0.419   138.165     0.021     0.025     0.003     0.001     0.001     0.002   109.060     0.026     0.000 .00000E+00 0.000E+00 0.000E+00 0.000E+00 0.000E+00 0.000E+00
BIGSUB   3        0    4.12200E+00   238.900     0.000   112.395    61.205    56.197     0.169    26.020     0.592   136.417     0.028     0.025     0.003     0.001     0.001     0.002   109.574     0.027     0.000 .00000E+00 0.000E+00 0.000E+00 0.000E+00 0.000E+00 0.000E+00
BIGSUB   4        0    4.11502E+00   238.900     0.000   112.405    57.905    50.499     0.000    27.314     0.326   138.252     0.029     0.026     0.003     0.001     0.000     0.002   110.436     0.026     0.000 .00000E+00 0.000E+00 0.000E+00 0.000E+00 0.000E+00 0.000E+00
BIGSUB   5        0    4.20828E-01   238.900     0.000   112.360    84.485   100.001     0.000    26.956     3.689   121.147     0.005     0.037     0.005     0.002     0.005     0.003    89.508     0.044     0.000 .00000E+00 0.000E+00 0.000E+00 0.000E+00 0.000E+00 0.000E+00
BIGSUB   6        0    4.35910E-02   238.900     0.000   112.351    87.476   119.361     0.000    40.250     5.057   119.114     0.002     0.015     0.002     0.001     0.010     0.001    72.470     0.016     0.000 .00000E+00 0.000E+00 0.000E+00 0.000E+00 0.000E+00 0.000E+00
BIGSUB   7        0    4.76644E-01   238.900     0.000   112.361    66.296    67.190     0.054    31.189     1.571   131.764     0.013     0.029     0.004     0.004     0.002     0.002    98.533     0.030     0.000 .00000E+00 0.000E+00 0.000E+00 0.000E+00 0.000E+00 0.000E+00
BIGSUB   1        0    5.74695E-01   134.700     0.000   133.595    75.405    47.121     0.000     1.606     0.071    78.014     0.001     0.001     0.000     0.000     0.000     0.000    76.149     0.048     0.000 .00000E+00 0.000E+00 0.000E+00 0.000E+00 0.000E+00 0.000E+00
BIGSUB   2        0    5.72232E-01   134.700     0.000   133.603    74.066    47.436     0.000     1.458     0.046    79.036     0.001     0.001     0.000     0.000     0.000     0.000    77.367     0.051     0.000 .00000E+00 0.000E+00 0.000E+00 0.000E+00 0.000E+00 0.000E+00
BIGSUB   3        0    5.12200E+00   134.700     0.000   133.590    74.335    52.407     0.117     1.221     0.149    79.031     0.001     0.001     0.000     0.000     0.000     0.000    77.470     0.053     0.000 .00000E+00 0.000E+00 0.000E+00 0.000E+00 0.000E+00 0.000E+00
BIGSUB   4        0    5.11502E+00   134.700     0.000   133.571    73.193    46.989     0.011     1.330     0.033    79.816     0.001     0.001     0.000     0.000     0.000     0.000    78.309     0.052     0.000 .00000E+00 0.000E+00 0.000E+00 0.000E+00 0.000E+00 0.000E+00
BIGSUB   5        0    5.20828E-01   134.700     0.000   133.654    91.602    92.029     0.000     1.417     0.361    65.131     0.000     0.000     0.000     0.000     0.000     0.000    62.549     0.044     0.000 .00000E+00 0.000E+00 0.000E+00 0.000E+00 0.000E+00 0.000E+00
BIGSUB   6        0    5.35910E-02   134.700     0.000   133.670    89.078   118.385     0.000     3.129     0.498    58.976     0.000     0.000     0.000     0.000     0.001     0.000    54.270     0.031     0.000 .00000E+00 0.000E+00 0.000E+00 0.000E+00 0.000E+00 0.000E+00
BIGSUB   7        0    5.76644E-01   134.700     0.000   133.653    78.615    62.736     0.071     3.519     0.130    74.421     0.001     0.001     0.000     0.003     0.000     0.000    70.391     0.050     0.000 .00000E+00 0.000E+00 0.000E+00 0.000E+00 0.000E+00 0.000E+00
BIGSUB   1        0    6.74695E-01   299.100     0.000    88.490    60.477    61.853     0.991    96.471     0.181   223.297     0.148     0.232     0.029     0.004     0.005     0.022   126.505     0.181     0.000 .00000E+00 0.000E+00 0.000E+00 0.000E+00 0.000E+00 0.000E+00
BIGSUB   2        0    6.72232E-01   299.100     0.000    88.513    60.287    62.135     0.541    95.165     0.057   223.828     0.209     0.251     0.031     0.004     0.004     0.023   128.485     0.187     0.000 .00000E+00 0.000E+00 0.000E+00 0.000E+00 0.000E+00 0.000E+00
BIGSUB   3        0    6.12200E+00   299.100     0.000    88.472    60.104    68.791     0.323    91.400     0.186   222.689     0.280     0.253     0.031     0.004     0.004     0.023   130.961     0.196     0.000 .00000E+00 0.000E+00 0.000E+00 0.000E+00 0.000E+00 0.000E+00
BIGSUB   4        0    6.11502E+00   299.100     0.000    88.418    60.108    61.888     0.114    93.987     0.016   224.179     0.285     0.261     0.032     0.004     0.003     0.024   130.071     0.190     0.000 .00000E+00 0.000E+00 0.000E+00 0.000E+00 0.000E+00 0.000E+00
BIGSUB   5        0    6.20828E-01   299.100     0.000    88.667    56.750   125.366     3.443    85.880     0.214   206.378     0.039     0.224     0.028     0.003     0.015     0.018   119.690     0.226     0.000 .00000E+00 0.000E+00 0.000E+00 0.000E+00 0.000E+00 0.000E+00
BIGSUB   6        0    6.35910E-02   299.100     0.000    88.715    65.645   148.549     4.673   104.285     0.285   199.790     0.018     0.121     0.015     0.003     0.021     0.011    94.422     0.123     0.000 .00000E+00 0.000E+00 0.000E+00 0.000E+00 0.000E+00 0.000E+00
BIGSUB   7        0    6.76644E-01   299.100     0.000    88.663    59.789    83.879     0.563    98.626     0.047   217.991     0.128     0.230     0.028     0.007     0.007     0.021   119.037     0.192     0.000 .00000E+00 0.000E+00 0.000E+00 0.000E+00 0.000E+00 0.000E+00
BIGSUB   1        0    7.74695E-01   248.800     0.000   102.952    72.816    72.428     2.315    13.670     0.693   164.143     0.028     0.053     0.006     0.001     0.001     0.005   149.661     0.201     0.000 .00000E+00 0.000E+00 0.000E+00 0.000E+00 0.000E+00 0.000E+00
BIGSUB   2        0    7.72232E-01   248.800     0.000   102.989    72.865    72.247     2.016    12.413     0.460   164.607     0.039     0.054     0.007     0.001     0.001     0.005   151.633     0.202     0.000 .00000E+00 0.000E+00 0.000E+00 0.000E+00 0.000E+00 0.000E+00
BIGSUB   3        0    7.12200E+00   248.800     0.000   102.923    73.315    80.935     0.960    10.741     0.250   162.986     0.052     0.051     0.006     0.001     0.000     0.005   151.881     0.203     0.000 .00000E+00 0.000E+00 0.000E+00 0.000E+00 0.000E+00 0.000E+00
BIGSUB   4        0    7.11502E+00   248.800     0.000   102.833    72.818    71.568     1.859    11.516     0.203   164.974     0.054     0.056     0.007     0.001     0.000     0.005   153.170     0.203     0.000 .00000E+00 0.000E+00 0.000E+00 0.000E+00 0.000E+00 0.000E+00
BIGSUB   5        0    7.20828E-01   248.800     0.000   103.243    78.435   130.691    16.184    10.937     3.331   152.931     0.005     0.019     0.002     0.005     0.002     0.002   138.154     0.234     0.000 .00000E+00 0.000E+00 0.000E+00 0.000E+00 0.000E+00 0.000E+00
BIGSUB   6        0    7.35910E-02   248.800     0.000   103.322    76.954   155.361    23.178    20.980     4.349   147.025     0.001     0.009     0.001     0.004     0.005     0.001   121.013     0.191     0.000 .00000E+00 0.000E+00 0.000E+00 0.000E+00 0.000E+00 0.000E+00
BIGSUB   7        0    7.76644E-01   248.800     0.000   103.236    75.564    91.517     6.972    17.761     0.727   159.816     0.024     0.047     0.006     0.130     0.002     0.004   141.096     0.206     0.000 .00000E+00 0.000E+00 0.000E+00 0.000E+00 0.000E+00 0.000E+00
BIGSUB   1        0    8.74695E-01   467.800     0.000   112.565    70.768    89.112     5.099   155.477     1.830   376.980     0.952     1.717     0.211     0.007     0.008     0.163   219.556     0.206     0.000 .00000E+00 0.000E+00 0.000E+00 0.000E+00 0.000E+00 0.000E+00
BIGSUB   2        0    8.72232E-01   467.800     0.000   112.600    70.785    89.230     4.453   151.375     1.542   377.000     1.342     1.838     0.226     0.006     0.006     0.175   223.984     0.207     0.000 .00000E+00 0.000E+00 0.000E+00 0.000E+00 0.000E+00 0.000E+00
BIGSUB   3        0    8.12200E+00   467.800     0.000   112.539    71.579    96.365     6.221   144.113     0.930   375.385     1.793     1.770     0.219     0.006     0.005     0.169   230.238     0.217     0.000 .00000E+00 0.000E+00 0.000E+00 0.000E+00 0.000E+00 0.000E+00
BIGSUB   4        0    8.11502E+00   467.800     0.000   112.457    70.739    88.942     3.637   149.080     1.285   377.195     1.831     1.885     0.233     0.005     0.004     0.180   226.747     0.207     0.000 .00000E+00 0.000E+00 0.000E+00 0.000E+00 0.000E+00 0.000E+00
BIGSUB   5        0    8.20828E-01   467.800     0.000   112.831    82.803   139.625    32.281   122.758    12.068   356.278     0.170     0.813     0.101     0.010     0.023     0.071   220.888     0.195     0.001 .00000E+00 0.000E+00 0.000E+00 0.000E+00 0.000E+00 0.000E+00
BIGSUB   6        0    8.35910E-02   467.800     0.000   112.903    74.175   152.901    52.090   145.583    17.774   362.431     0.079     0.618     0.076     0.011     0.030     0.055   198.286     0.254     0.002 .00000E+00 0.000E+00 0.000E+00 0.000E+00 0.000E+00 0.000E+00
BIGSUB   7        0    8.76644E-01   467.800     0.000   112.825    75.287   102.774    14.879   152.710     4.871   371.311     0.796     1.495     0.184     0.009     0.011     0.140   213.478     0.204     0.000 .00000E+00 0.000E+00 0.000E+00 0.000E+00 0.000E+00 0.000E+00
BIGSUB   1        0    9.74695E-01   166.700     0.000   150.329    80.159    80.259     0.891    18.897     2.581    97.492     0.283     0.415     0.051     0.002     0.001     0.039    75.887     0.047     0.000 .00000E+00 0.000E+00 0.000E+00 0.000E+00 0.000E+00 0.000E+00
BIGSUB   2        0    9.72232E-01   166.700     0.000   150.366    80.096    80.342     0.723    18.021     2.373    97.534     0.398     0.428     0.053     0.002     0.001     0.041    77.031     0.047     0.000 .00000E+00 0.000E+00 0.000E+00 0.000E+00 0.000E+00 0.000E+00
BIGSUB   3        0    9.12200E+00   166.700     0.000   150.301    81.275    86.913     0.942    16.369     2.616    96.954     0.528     0.363     0.045     0.002     0.000     0.035    77.849     0.048     0.000 .00000E+00 0.000E+00 0.000E+00 0.000E+00 0.000E+00 0.000E+00
BIGSUB   4        0    9.11502E+00   166.700     0.000   150.214    80.009    79.985     0.582    17.566     1.984    97.427     0.543     0.405     0.050     0.002     0.000     0.039    77.786     0.046     0.000 .00000E+00 0.000E+00 0.000E+00 0.000E+00 0.000E+00 0.000E+00
BIGSUB   5        0    9.20828E-01   166.700     0.000   150.613    99.289   121.798     5.516    11.543    17.684    98.304     0.039     0.123     0.015     0.002     0.002     0.011    68.395     0.050     0.002 .00000E+00 0.000E+00 0.000E+00 0.000E+00 0.000E+00 0.000E+00
BIGSUB   6        0    9.35910E-02   166.700     0.000   150.690    86.639   145.869     8.496    16.057    27.702   107.484     0.012     0.083     0.010     0.004     0.004     0.007    62.724     0.061     0.003 .00000E+00 0.000E+00 0.000E+00 0.000E+00 0.000E+00 0.000E+00
BIGSUB   7        0    9.76644E-01   166.700     0.000   150.606    86.433    92.037     2.141    17.786     7.844    97.263     0.232     0.333     0.041     0.003     0.001     0.031    71.328     0.047     0.001 .00000E+00 0.000E+00 0.000E+00 0.000E+00 0.000E+00 0.000E+00
BIGSUB   1        0   10.74695E-01   234.500     0.000   163.519    73.964    86.914     1.063    53.146     1.821   148.424     1.393     1.839     0.226     0.007     0.003     0.176    93.335     0.101     0.000 .00000E+00 0.000E+00 0.000E+00 0.000E+00 0.000E+00 0.000E+00
BIGSUB   2        0   10.72232E-01   234.500     0.000   163.552    73.910    87.075     0.848    51.434     1.615   148.285     1.958     1.781     0.219     0.006     0.002     0.171    95.131     0.101     0.000 .00000E+00 0.000E+00 0.000E+00 0.000E+00 0.000E+00 0.000E+00
BIGSUB   3        0   10.12200E+00   234.500     0.000   163.494    74.764    94.503     0.758    47.623     1.661   146.606     2.601     1.529     0.188     0.006     0.001     0.148    97.203     0.103     0.000 .00000E+00 0.000E+00 0.000E+00 0.000E+00 0.000E+00 0.000E+00
BIGSUB   4        0   10.11502E+00   234.500     0.000   163.416    73.802    86.713     0.678    50.438     1.399   148.255     2.670     1.665     0.205     0.006     0.001     0.161    96.331     0.100     0.000 .00000E+00 0.000E+00 0.000E+00 0.000E+00 0.000E+00 0.000E+00
BIGSUB   5        0   10.20828E-01   234.500     0.000   163.772    83.900   134.289     6.331    32.521    12.383   138.579     0.207     0.639     0.078     0.007     0.006     0.059    92.995     0.138     0.001 .00000E+00 0.000E+00 0.000E+00 0.000E+00 0.000E+00 0.000E+00
BIGSUB   6        0   10.35910E-02   234.500     0.000   163.840    81.528   157.635     9.137    47.138    19.045   146.834     0.088     0.594     0.073     0.009     0.010     0.053    79.639     0.120     0.001 .00000E+00 0.000E+00 0.000E+00 0.000E+00 0.000E+00 0.000E+00
BIGSUB   7        0   10.76644E-01   234.500     0.000   163.766    77.825   101.316     2.305    48.592     5.190   144.480     1.147     1.489     0.183     0.009     0.003     0.141    90.397     0.107     0.000 .00000E+00 0.000E+00 0.000E+00 0.000E+00 0.000E+00 0.000E+00
BIGSUB   1        0   11.74695E-01   180.900     0.000   149.921    74.712    85.205     0.727    26.939     0.879   108.892     1.300     1.464     0.180     0.003     0.001     0.141    80.971     0.091     0.000 .00000E+00 0.000E+00 0.000E+00 0.000E+00 0.000E+00 0.000E+00
BIGSUB   2        0   11.72232E-01   180.900     0.000   149.946    74.605    85.346     0.588    25.814     0.584   108.863     1.821     1.364     0.168     0.003     0.001     0.132    82.378     0.090     0.000 .00000E+00 0.000E+00 0.000E+00 0.000E+00 0.000E+00 0.000E+00
BIGSUB   3        0   11.12200E+00   180.900     0.000   149.903    74.815    93.421     0.493    23.689     0.364   107.880     2.419     1.165     0.143     0.002     0.001     0.113    83.727     0.092     0.000 .00000E+00 0.000E+00 0.000E+00 0.000E+00 0.000E+00 0.000E+00
BIGSUB   4        0   11.11502E+00   180.900     0.000   149.846    74.464    84.931     0.489    25.137     0.422   108.987     2.482     1.252     0.154     0.002     0.001     0.122    83.357     0.090     0.000 .00000E+00 0.000E+00 0.000E+00 0.000E+00 0.000E+00 0.000E+00
BIGSUB   5        0   11.20828E-01   180.900     0.000   150.108    70.322   140.614     4.450    18.003     4.413   105.128     0.202     0.626     0.077     0.004     0.003     0.058    82.131     0.152     0.000 .00000E+00 0.000E+00 0.000E+00 0.000E+00 0.000E+00 0.000E+00
BIGSUB   6        0   11.35910E-02   180.900     0.000   150.159    84.034   158.227     6.267    25.415     5.825    97.135     0.094     0.645     0.079     0.004     0.006     0.058    65.028     0.104     0.000 .00000E+00 0.000E+00 0.000E+00 0.000E+00 0.000E+00 0.000E+00
BIGSUB   7        0   11.76644E-01   180.900     0.000   150.104    74.205   102.005     1.872    26.436     1.454   106.469     1.072     1.196     0.147     0.006     0.002     0.114    78.325     0.102     0.000 .00000E+00 0.000E+00 0.000E+00 0.000E+00 0.000E+00 0.000E+00
BIGSUB   1        0   12.74695E-01   309.800     0.000   145.828    95.076    90.543     2.738    50.066     1.167   206.262     4.530     4.337     0.533     0.003     0.002     0.417   154.931     0.217     0.000 .00000E+00 0.000E+00 0.000E+00 0.000E+00 0.000E+00 0.000E+00
BIGSUB   2        0   12.72232E-01   309.800     0.000   145.838    94.939    90.662     2.357    47.998     0.949   206.515     6.334     3.883     0.477     0.002     0.001     0.375   157.486     0.216     0.000 .00000E+00 0.000E+00 0.000E+00 0.000E+00 0.000E+00 0.000E+00
BIGSUB   3        0   12.12200E+00   309.800     0.000   145.821    95.344    98.360     3.128    44.163     0.966   205.614     8.422     3.246     0.399     0.003     0.001     0.316   160.391     0.226     0.000 .00000E+00 0.000E+00 0.000E+00 0.000E+00 0.000E+00 0.000E+00
BIGSUB   4        0   12.11502E+00   309.800     0.000   145.799    94.809    90.333     1.894    46.850     0.796   206.825     8.629     3.469     0.426     0.002     0.001     0.338   159.112     0.215     0.000 .00000E+00 0.000E+00 0.000E+00 0.000E+00 0.000E+00 0.000E+00
BIGSUB   5        0   12.20828E-01   309.800     0.000   145.901    98.065   147.417    17.621    33.928     7.274   193.111     0.715     2.166     0.267     0.012     0.008     0.199   151.349     0.380     0.001 .00000E+00 0.000E+00 0.000E+00 0.000E+00 0.000E+00 0.000E+00
BIGSUB   6        0   12.35910E-02   309.800     0.000   145.920   102.685   157.884    27.837    44.344    10.949   189.295     0.339     2.358     0.290     0.004     0.010     0.212   133.162     0.242     0.001 .00000E+00 0.000E+00 0.000E+00 0.000E+00 0.000E+00 0.000E+00
BIGSUB   7        0   12.76644E-01   309.800     0.000   145.899    97.037   106.172     8.417    49.071     3.102   201.757     3.727     3.521     0.432     0.020     0.004     0.334   149.339     0.247     0.000 .00000E+00 0.000E+00 0.000E+00 0.000E+00 0.000E+00 0.000E+00
BIGSUB   1        0 2013.74695E-01  3096.300     0.000  1499.225   901.205    90.543    32.327   650.510    20.291  2177.951    26.019    40.177     4.915     0.035     0.038     3.914  1505.186     1.647     0.004 .00000E+00 0.000E+00 0.000E+00 0.000E+00 0.000E+00 0.000E+00
BIGSUB   2        0 2013.72232E-01  3096.301     0.000  1499.382   899.403    90.662    27.805   631.303    17.134  2180.769    36.726    43.454     5.314     0.031     0.029     4.250  1530.628     1.664     0.003 .00000E+00 0.000E+00 0.000E+00 0.000E+00 0.000E+00 0.000E+00
BIGSUB   3        0 2013.12200E+00  3096.300     0.000  1499.107   907.428    98.360    31.276   590.580    20.120  2171.483    48.934    43.352     5.301     0.029     0.023     4.251  1558.836     1.765     0.004 .00000E+00 0.000E+00 0.000E+00 0.000E+00 0.000E+00 0.000E+00
BIGSUB   4        0 2013.11502E+00  3096.300     0.000  1498.735   897.745    90.333    23.476   619.464    13.688  2182.949    50.062    45.858     5.608     0.028     0.020     4.502  1548.339     1.671     0.002 .00000E+00 0.000E+00 0.000E+00 0.000E+00 0.000E+00 0.000E+00
BIGSUB   5        0 2013.20828E-01  3096.301     0.000  1500.432   991.487   147.417   157.548   485.125   140.081  2086.423     4.012    14.575     1.788     0.080     0.103     1.342  1451.953     3.171     0.023 .00000E+00 0.000E+00 0.000E+00 0.000E+00 0.000E+00 0.000E+00
BIGSUB   6        0 2013.35910E-02  3096.300     0.000  1500.759   990.836   157.884   226.313   605.922   199.170  2079.895     1.754    13.059     1.597     0.057     0.140     1.180  1261.912     1.627     0.032 .00000E+00 0.000E+00 0.000E+00 0.000E+00 0.000E+00 0.000E+00
BIGSUB   7        0 2013.76644E-01  3096.300     0.000  1500.405   932.713   106.172    71.864   641.685    56.677  2144.015    21.695    34.626     4.234     0.279     0.053     3.344  1441.388     1.937     0.010 .00000E+00 0.000E+00 0.000E+00 0.000E+00 0.000E+00 0.000E+00
BIGSUB   1        0    1.74695E-01   549.600     0.000   142.826    95.756    92.441    10.644   173.805     2.734   450.638     9.700    26.980     3.299     0.005     0.012     2.641   273.965     0.369     0.001 .00000E+00 0.000E+00 0.000E+00 0.000E+00 0.000E+00 0.000E+00
BIGSUB   2        0    1.72232E-01   549.600     0.000   142.809    95.667    92.747     9.358   169.687     2.533   451.744    13.563    28.944     3.535     0.004     0.010     2.842   279.410     0.371     0.001 .00000E+00 0.000E+00 0.000E+00 0.000E+00 0.000E+00 0.000E+00
BIGSUB   3        0    1.12200E+00   549.600     0.000   142.838    95.933    99.681    11.384   158.252     3.395   451.365    18.052    29.914     3.652     0.004     0.009     2.943   289.582     0.393     0.001 .00000E+00 0.000E+00 0.000E+00 0.000E+00 0.000E+00 0.000E+00
BIGSUB   4        0    1.11502E+00   549.600     0.000   142.879    95.596    92.486     8.156   167.332     2.098   452.589    18.460    31.410     3.835     0.004     0.009     3.094   283.063     0.372     0.001 .00000E+00 0.000E+00 0.000E+00 0.000E+00 0.000E+00 0.000E+00
BIGSUB   5        0    1.20828E-01   549.600     0.000   142.695    98.081   145.533    49.897   120.528    18.684   430.279     1.613    10.193     1.252     0.027     0.030     0.955   290.330     0.641     0.006 .00000E+00 0.000E+00 0.000E+00 0.000E+00 0.000E+00 0.000E+00
BIGSUB   6        0    1.35910E-02   549.600     0.000   142.659   101.183   153.314    65.973   135.362    29.658   424.224     0.812     9.888     1.213     0.005     0.030     0.905   258.124     0.387     0.008 .00000E+00 0.000E+00 0.000E+00 0.000E+00 0.000E+00 0.000E+00
BIGSUB   7        0    1.76644E-01   549.600     0.000   142.698    97.392   106.294    22.835   165.051     8.875   445.003     8.006    22.034     2.691     0.025     0.018     2.141   270.747     0.420     0.002 .00000E+00 0.000E+00 0.000E+00 0.000E+00 0.000E+00 0.000E+00
BIGSUB   1        0    2.74695E-01   351.600     0.000   144.199    98.643    94.235     4.494    74.744     2.853   247.078     0.356     0.855     0.105     0.000     0.002     0.084   169.325     0.007     0.001 .00000E+00 0.000E+00 0.000E+00 0.000E+00 0.000E+00 0.000E+00
BIGSUB   2        0    2.72232E-01   351.600     0.000   144.181    98.821    94.562     3.875    72.090     2.564   247.154     0.490     0.811     0.099     0.000     0.001     0.080   172.366     0.007     0.001 .00000E+00 0.000E+00 0.000E+00 0.000E+00 0.000E+00 0.000E+00
BIGSUB   3        0    2.12200E+00   351.600     0.000   144.212    99.327   101.491     4.635    65.780     3.565   246.768     0.645     0.720     0.088     0.029     0.001     0.071   177.264     0.169     0.001 .00000E+00 0.000E+00 0.000E+00 0.000E+00 0.000E+00 0.000E+00
BIGSUB   4        0    2.11502E+00   351.600     0.000   144.255    98.933    94.330     3.268    70.565     2.097   247.089     0.665     0.794     0.097     0.000     0.000     0.079   174.314     0.007     0.000 .00000E+00 0.000E+00 0.000E+00 0.000E+00 0.000E+00 0.000E+00
BIGSUB   5        0    2.20828E-01   351.600     0.000   144.060   101.692   146.592    23.851    47.927    19.136   241.816     0.059     0.373     0.046     0.695     0.008     0.034   173.937     3.755     0.004 .00000E+00 0.000E+00 0.000E+00 0.000E+00 0.000E+00 0.000E+00
BIGSUB   6        0    2.35910E-02   351.600     0.000   144.022   102.181   154.381    32.233    58.180    29.794   244.287     0.025     0.319     0.039     0.001     0.011     0.029   155.152     0.019     0.006 .00000E+00 0.000E+00 0.000E+00 0.000E+00 0.000E+00 0.000E+00
BIGSUB   7        0    2.76644E-01   351.600     0.000   144.063   100.232   107.933    10.425    71.096     8.946   245.953     0.286     0.632     0.077     0.802     0.004     0.061   165.544     0.780     0.002 .00000E+00 0.000E+00 0.000E+00 0.000E+00 0.000E+00 0.000E+00
BIGSUB   1        0    3.74695E-01   222.800     0.000   167.223   129.135    58.269     0.949    39.171     3.043   135.609     0.017     0.038     0.005     0.000     0.001     0.004    93.208     0.002     0.000 .00000E+00 0.000E+00 0.000E+00 0.000E+00 0.000E+00 0.000E+00
BIGSUB   2        0    3.72232E-01   222.800     0.000   167.214   129.061    58.451     0.819    37.928     2.690   135.624     0.024     0.037     0.005     0.000     0.001     0.004    94.844     0.002     0.000 .00000E+00 0.000E+00 0.000E+00 0.000E+00 0.000E+00 0.000E+00
BIGSUB   3        0    3.12200E+00   222.800     0.000   167.231   129.834    65.342     0.995    34.960     3.664   135.865     0.031     0.038     0.005     0.016     0.000     0.004    97.048     0.028     0.000 .00000E+00 0.000E+00 0.000E+00 0.000E+00 0.000E+00 0.000E+00
BIGSUB   4        0    3.11502E+00   222.800     0.000   167.254   129.005    58.079     0.682    37.181     2.241   135.536     0.032     0.039     0.005     0.000     0.000     0.004    95.977     0.002     0.000 .00000E+00 0.000E+00 0.000E+00 0.000E+00 0.000E+00 0.000E+00
BIGSUB   5        0    3.20828E-01   222.800     0.000   167.148   140.282   109.312     6.307    26.766    22.109   140.581     0.007     0.067     0.008     0.318     0.003     0.005    90.724     0.608     0.002 .00000E+00 0.000E+00 0.000E+00 0.000E+00 0.000E+00 0.000E+00
BIGSUB   6        0    3.35910E-02   222.800     0.000   167.127   136.650   122.896     9.108    32.083    31.732   145.124     0.002     0.014     0.002     0.000     0.006     0.001    79.928     0.003     0.003 .00000E+00 0.000E+00 0.000E+00 0.000E+00 0.000E+00 0.000E+00
BIGSUB   7        0    3.76644E-01   222.800     0.000   167.150   132.260    72.772     2.637    37.103     9.482   136.634     0.015     0.040     0.005     0.080     0.002     0.004    89.607     0.085     0.001 .00000E+00 0.000E+00 0.000E+00 0.000E+00 0.000E+00 0.000E+00
BIGSUB   1        0    4.74695E-01   466.600     0.000   131.828   116.090    94.977     3.729    68.681     2.067   302.163     0.020     0.042     0.005     0.002     0.003     0.004   231.243     0.045     0.000 .00000E+00 0.000E+00 0.000E+00 0.000E+00 0.000E+00 0.000E+00
BIGSUB   2        0    4.72232E-01   466.600     0.000   131.833   115.963    95.164     3.153    65.235     1.682   302.322     0.027     0.041     0.005     0.002     0.002     0.004   235.256     0.047     0.000 .00000E+00 0.000E+00 0.000E+00 0.000E+00 0.000E+00 0.000E+00
BIGSUB   3        0    4.12200E+00   466.600     0.000   131.825   116.383   102.484     3.886    59.443     1.445   300.189     0.036     0.043     0.005     0.002     0.001     0.004   239.123     0.049     0.000 .00000E+00 0.000E+00 0.000E+00 0.000E+00 0.000E+00 0.000E+00
BIGSUB   4        0    4.11502E+00   466.600     0.000   131.815   115.859    94.862     2.550    63.107     1.253   302.386     0.037     0.044     0.005     0.002     0.001     0.004   237.900     0.048     0.000 .00000E+00 0.000E+00 0.000E+00 0.000E+00 0.000E+00 0.000E+00
BIGSUB   5        0    4.20828E-01   466.600     0.000   131.862   121.855   149.229    24.176    48.380    13.169   283.972     0.008     0.067     0.009     0.003     0.008     0.005   221.512     0.065     0.001 .00000E+00 0.000E+00 0.000E+00 0.000E+00 0.000E+00 0.000E+00
BIGSUB   6        0    4.35910E-02   466.600     0.000   131.871   120.473   158.676    36.216    68.068    18.226   284.107     0.001     0.007     0.001     0.001     0.014     0.001   196.539     0.034     0.001 .00000E+00 0.000E+00 0.000E+00 0.000E+00 0.000E+00 0.000E+00
BIGSUB   7        0    4.76644E-01   466.600     0.000   131.861   117.789   109.941    10.360    69.380     5.003   296.704     0.017     0.047     0.006     0.005     0.004     0.004   221.913     0.052     0.000 .00000E+00 0.000E+00 0.000E+00 0.000E+00 0.000E+00 0.000E+00
BIGSUB   1        0    5.74695E-01   221.200     0.000   141.398    79.683    93.247     1.298    39.588     2.329   153.620     0.022     0.040     0.005     0.004     0.002     0.004   111.534     0.119     0.000 .00000E+00 0.000E+00 0.000E+00 0.000E+00 0.000E+00 0.000E+00
BIGSUB   2        0    5.72232E-01   221.200     0.000   141.426    77.825    94.130     1.169    39.078     1.962   154.643     0.031     0.043     0.005     0.005     0.002     0.004   113.458     0.126     0.000 .00000E+00 0.000E+00 0.000E+00 0.000E+00 0.000E+00 0.000E+00
BIGSUB   3        0    5.12200E+00   221.200     0.000   141.378    78.041   101.289     1.629    36.568     2.350   154.887     0.041     0.045     0.006     0.004     0.001     0.004   115.795     0.130     0.000 .00000E+00 0.000E+00 0.000E+00 0.000E+00 0.000E+00 0.000E+00
BIGSUB   4        0    5.11502E+00   221.200     0.000   141.313    76.721    94.010     1.128    38.665     1.561   155.292     0.042     0.046     0.006     0.005     0.001     0.004   114.943     0.129     0.000 .00000E+00 0.000E+00 0.000E+00 0.000E+00 0.000E+00 0.000E+00
BIGSUB   5        0    5.20828E-01   221.200     0.000   141.610    99.394   140.945     8.953    24.803    14.687   146.677     0.005     0.032     0.004     0.002     0.004     0.003   106.262     0.112     0.000 .00000E+00 0.000E+00 0.000E+00 0.000E+00 0.000E+00 0.000E+00
BIGSUB   6        0    5.35910E-02   221.200     0.000   141.667    93.767   155.863    12.563    31.980    22.036   149.847     0.001     0.009     0.001     0.001     0.006     0.001    94.525     0.083     0.001 .00000E+00 0.000E+00 0.000E+00 0.000E+00 0.000E+00 0.000E+00
BIGSUB   7        0    5.76644E-01   221.200     0.000   141.605    82.506   107.191     4.187    38.673     6.277   153.034     0.019     0.037     0.005     0.007     0.002     0.003   107.673     0.125     0.000 .00000E+00 0.000E+00 0.000E+00 0.000E+00 0.000E+00 0.000E+00
BIGSUB   1        0    6.74695E-01   204.500     0.000   138.199    82.979    86.176     1.325    31.416     1.769   130.178     0.019     0.036     0.004     0.004     0.002     0.003    96.841     0.102     0.000 .00000E+00 0.000E+00 0.000E+00 0.000E+00 0.000E+00 0.000E+00
BIGSUB   2        0    6.72232E-01   204.500     0.000   138.232    82.370    86.805     1.176    30.777     1.652   131.059     0.026     0.040     0.005     0.004     0.001     0.004    98.498     0.106     0.000 .00000E+00 0.000E+00 0.000E+00 0.000E+00 0.000E+00 0.000E+00
BIGSUB   3        0    6.12200E+00   204.500     0.000   138.174    81.997    93.840     1.753    28.523     2.229   131.588     0.035     0.041     0.005     0.003     0.001     0.004   100.674     0.111     0.000 .00000E+00 0.000E+00 0.000E+00 0.000E+00 0.000E+00 0.000E+00
BIGSUB   4        0    6.11502E+00   204.500     0.000   138.096    81.902    86.530     1.078    30.293     1.626   131.747     0.036     0.043     0.005     0.004     0.001     0.004    99.715     0.108     0.000 .00000E+00 0.000E+00 0.000E+00 0.000E+00 0.000E+00 0.000E+00
BIGSUB   5        0    6.20828E-01   204.500     0.000   138.452    77.737   140.291    10.009    20.042    13.223   132.335     0.004     0.028     0.004     0.002     0.003     0.002    98.203     0.148     0.000 .00000E+00 0.000E+00 0.000E+00 0.000E+00 0.000E+00 0.000E+00
BIGSUB   6        0    6.35910E-02   204.500     0.000   138.521    91.638   147.780    14.052    25.587    19.849   128.685     0.001     0.007     0.001     0.002     0.005     0.001    82.015     0.083     0.001 .00000E+00 0.000E+00 0.000E+00 0.000E+00 0.000E+00 0.000E+00
BIGSUB   7        0    6.76644E-01   204.500     0.000   138.447    80.796   100.779     5.154    30.980     6.416   132.674     0.016     0.034     0.004     0.007     0.002     0.003    94.891     0.118     0.000 .00000E+00 0.000E+00 0.000E+00 0.000E+00 0.000E+00 0.000E+00
BIGSUB   1        0    7.74695E-01   729.100     0.000   111.600    64.467   100.252     7.708   446.529     1.515   626.394     1.108     1.974     0.243     0.014     0.025     0.184   178.205     0.272     0.000 .00000E+00 0.000E+00 0.000E+00 0.000E+00 0.000E+00 0.000E+00
BIGSUB   2        0    7.72232E-01   729.100     0.000   111.608    64.469   100.598     7.016   443.192     1.342   626.757     1.563     2.186     0.270     0.013     0.021     0.204   182.096     0.274     0.000 .00000E+00 0.000E+00 0.000E+00 0.000E+00 0.000E+00 0.000E+00
BIGSUB   3        0    7.12200E+00   729.100     0.000   111.594    64.846   107.557     8.524   430.974     1.855   624.013     2.101     2.283     0.283     0.013     0.019     0.213   191.025     0.282     0.000 .00000E+00 0.000E+00 0.000E+00 0.000E+00 0.000E+00 0.000E+00
BIGSUB   4        0    7.11502E+00   729.100     0.000   111.576    64.426   100.372     6.189   441.006     1.197   627.062     2.133     2.332     0.289     0.012     0.016     0.218   184.751     0.275     0.000 .00000E+00 0.000E+00 0.000E+00 0.000E+00 0.000E+00 0.000E+00
BIGSUB   5        0    7.20828E-01   729.100     0.000   111.660    70.111   152.003    37.242   385.208    11.128   599.837     0.257     1.457     0.182     0.025     0.074     0.117   202.640     0.306     0.000 .00000E+00 0.000E+00 0.000E+00 0.000E+00 0.000E+00 0.000E+00
BIGSUB   6        0    7.35910E-02   729.100     0.000   111.677    68.676   160.448    48.771   400.908    15.479   595.916     0.119     0.841     0.103     0.016     0.078     0.074   178.314     0.272     0.001 .00000E+00 0.000E+00 0.000E+00 0.000E+00 0.000E+00 0.000E+00
BIGSUB   7        0    7.76644E-01   729.100     0.000   111.659    66.503   114.253    16.759   433.800     5.344   619.335     0.943     1.840     0.227     0.026     0.034     0.168   179.805     0.273     0.000 .00000E+00 0.000E+00 0.000E+00 0.000E+00 0.000E+00 0.000E+00
BIGSUB   1        0    8.74695E-01   116.200     0.000   134.725    72.653    82.576     1.492     3.996     2.391    79.862     0.015     0.025     0.003     0.001     0.000     0.002    73.309     0.073     0.000 .00000E+00 0.000E+00 0.000E+00 0.000E+00 0.000E+00 0.000E+00
BIGSUB   2        0    8.72232E-01   116.200     0.000   134.722    72.621    82.769     1.290     3.673     2.209    80.460     0.021     0.027     0.003     0.001     0.000     0.003    74.433     0.073     0.000 .00000E+00 0.000E+00 0.000E+00 0.000E+00 0.000E+00 0.000E+00
BIGSUB   3        0    8.12200E+00   116.200     0.000   134.728    73.492    89.228     1.392     3.345     3.218    82.517     0.028     0.025     0.003     0.000     0.000     0.002    75.772     0.072     0.000 .00000E+00 0.000E+00 0.000E+00 0.000E+00 0.000E+00 0.000E+00
BIGSUB   4        0    8.11502E+00   116.200     0.000   134.736    72.578    82.398     1.141     3.510     1.874    80.792     0.029     0.028     0.004     0.000     0.000     0.003    75.281     0.073     0.000 .00000E+00 0.000E+00 0.000E+00 0.000E+00 0.000E+00 0.000E+00
BIGSUB   5        0    8.20828E-01   116.200     0.000   134.698    85.596   128.127     4.415     2.001    18.838    91.609     0.002     0.005     0.001     0.001     0.000     0.000    69.847     0.056     0.002 .00000E+00 0.000E+00 0.000E+00 0.000E+00 0.000E+00 0.000E+00
BIGSUB   6        0    8.35910E-02   116.200     0.000   134.691    78.558   146.258     5.864     3.640    25.474    92.148     0.000     0.000     0.000     0.002     0.001     0.000    61.754     0.065     0.002 .00000E+00 0.000E+00 0.000E+00 0.000E+00 0.000E+00 0.000E+00
BIGSUB   7        0    8.76644E-01   116.200     0.000   134.699    77.032    95.006     2.360     4.539     7.849    82.604     0.012     0.020     0.003     0.002     0.000     0.002    69.797     0.065     0.001 .00000E+00 0.000E+00 0.000E+00 0.000E+00 0.000E+00 0.000E+00
BIGSUB   1        0    9.74695E-01   109.600     0.000   137.722    55.744    80.245     0.115     9.158     1.151    57.871     0.113     0.186     0.023     0.002     0.001     0.018    47.403     0.058     0.000 .00000E+00 0.000E+00 0.000E+00 0.000E+00 0.000E+00 0.000E+00
BIGSUB   2        0    9.72232E-01   109.600     0.000   137.698    55.668    80.490     0.000     8.639     1.011    57.858     0.159     0.202     0.025     0.002     0.000     0.019    48.067     0.057     0.000 .00000E+00 0.000E+00 0.000E+00 0.000E+00 0.000E+00 0.000E+00
BIGSUB   3        0    9.12200E+00   109.600     0.000   137.741    56.580    86.633     0.096     7.674     1.401    57.584     0.210     0.181     0.022     0.001     0.000     0.017    48.336     0.056     0.000 .00000E+00 0.000E+00 0.000E+00 0.000E+00 0.000E+00 0.000E+00
BIGSUB   4        0    9.11502E+00   109.600     0.000   137.800    55.616    79.988     0.010     8.333     0.846    57.853     0.217     0.202     0.025     0.001     0.000     0.019    48.551     0.056     0.000 .00000E+00 0.000E+00 0.000E+00 0.000E+00 0.000E+00 0.000E+00
BIGSUB   5        0    9.20828E-01   109.600     0.000   137.531    69.392   121.832     0.133     4.901     8.554    56.117     0.015     0.046     0.006     0.001     0.001     0.004    41.822     0.047     0.000 .00000E+00 0.000E+00 0.000E+00 0.000E+00 0.000E+00 0.000E+00
BIGSUB   6        0    9.35910E-02   109.600     0.000   137.479    62.739   148.851     0.000     8.713    11.794    57.512     0.004     0.030     0.004     0.003     0.002     0.003    35.850     0.060     0.001 .00000E+00 0.000E+00 0.000E+00 0.000E+00 0.000E+00 0.000E+00
BIGSUB   7        0    9.76644E-01   109.600     0.000   137.535    59.815    92.386     0.013     8.653     3.370    56.577     0.093     0.150     0.018     0.002     0.001     0.014    44.171     0.052     0.000 .00000E+00 0.000E+00 0.000E+00 0.000E+00 0.000E+00 0.000E+00
BIGSUB   1        0   10.74695E-01    90.500     0.000   176.603    50.720    70.770     0.182     9.442     0.284    49.279     0.162     0.285     0.035     0.005     0.001     0.027    39.414     0.047     0.000 .00000E+00 0.000E+00 0.000E+00 0.000E+00 0.000E+00 0.000E+00
BIGSUB   2        0   10.72232E-01    90.500     0.000   176.589    50.669    70.998     0.115     8.939     0.144    49.255     0.228     0.288     0.035     0.005     0.000     0.027    40.049     0.046     0.000 .00000E+00 0.000E+00 0.000E+00 0.000E+00 0.000E+00 0.000E+00
BIGSUB   3        0   10.12200E+00    90.500     0.000   176.614    51.576    76.904     0.078     7.920     0.152    48.659     0.302     0.253     0.031     0.004     0.000     0.024    40.437     0.046     0.000 .00000E+00 0.000E+00 0.000E+00 0.000E+00 0.000E+00 0.000E+00
BIGSUB   4        0   10.11502E+00    90.500     0.000   176.648    50.565    70.591     0.007     8.616     0.087    49.295     0.311     0.280     0.035     0.004     0.000     0.027    40.486     0.045     0.000 .00000E+00 0.000E+00 0.000E+00 0.000E+00 0.000E+00 0.000E+00
BIGSUB   5        0   10.20828E-01    90.500     0.000   176.492    60.970   109.969     0.654     5.078     1.043    42.336     0.023     0.079     0.010     0.004     0.001     0.007    35.503     0.042     0.000 .00000E+00 0.000E+00 0.000E+00 0.000E+00 0.000E+00 0.000E+00
BIGSUB   6        0   10.35910E-02    90.500     0.000   176.461    59.865   139.856     0.847     9.067     1.280    40.912     0.009     0.064     0.008     0.007     0.002     0.006    29.591     0.050     0.000 .00000E+00 0.000E+00 0.000E+00 0.000E+00 0.000E+00 0.000E+00
BIGSUB   7        0   10.76644E-01    90.500     0.000   176.494    53.765    83.355     0.018     8.620     0.285    46.167     0.133     0.227     0.028     0.004     0.001     0.021    36.936     0.043     0.000 .00000E+00 0.000E+00 0.000E+00 0.000E+00 0.000E+00 0.000E+00
BIGSUB   1        0   11.74695E-01   332.200     0.000   134.797    86.334    87.612     2.815    51.530     0.525   226.476     1.733     2.589     0.318     0.004     0.003     0.245   174.310     0.314     0.000 .00000E+00 0.000E+00 0.000E+00 0.000E+00 0.000E+00 0.000E+00
BIGSUB   2        0   11.72232E-01   332.200     0.000   134.776    86.265    87.643     2.447    49.368     0.419   226.990     2.439     2.584     0.318     0.003     0.002     0.246   177.106     0.313     0.000 .00000E+00 0.000E+00 0.000E+00 0.000E+00 0.000E+00 0.000E+00
BIGSUB   3        0   11.12200E+00   332.200     0.000   134.812    86.081    94.911     2.519    45.024     0.214   225.555     3.249     2.333     0.287     0.003     0.001     0.223   180.200     0.310     0.000 .00000E+00 0.000E+00 0.000E+00 0.000E+00 0.000E+00 0.000E+00
BIGSUB   4        0   11.11502E+00   332.200     0.000   134.862    86.221    87.260     1.966    48.039     0.293   227.347     3.324     2.493     0.307     0.003     0.001     0.239   178.931     0.311     0.000 .00000E+00 0.000E+00 0.000E+00 0.000E+00 0.000E+00 0.000E+00
BIGSUB   5        0   11.20828E-01   332.200     0.000   134.636    75.751   138.182    18.405    32.056     3.104   213.196     0.275     1.018     0.125     0.003     0.006     0.092   177.466     0.297     0.000 .00000E+00 0.000E+00 0.000E+00 0.000E+00 0.000E+00 0.000E+00
BIGSUB   6        0   11.35910E-02   332.200     0.000   134.592    92.176   153.601    28.864    48.074     4.234   202.189     0.129     0.971     0.119     0.005     0.010     0.086   149.099     0.332     0.000 .00000E+00 0.000E+00 0.000E+00 0.000E+00 0.000E+00 0.000E+00
BIGSUB   7        0   11.76644E-01   332.200     0.000   134.640    83.787   102.992     7.883    51.156     0.984   221.797     1.441     2.178     0.267     0.007     0.004     0.205   169.402     0.300     0.000 .00000E+00 0.000E+00 0.000E+00 0.000E+00 0.000E+00 0.000E+00
BIGSUB   1        0   12.74695E-01   450.400     0.000   147.429    96.396    96.284     5.762   134.853     1.642   340.616     3.844     7.041     0.864     0.005     0.006     0.668   204.006     0.264     0.000 .00000E+00 0.000E+00 0.000E+00 0.000E+00 0.000E+00 0.000E+00
BIGSUB   2        0   12.72232E-01   450.400     0.000   147.417    96.373    96.585     4.978   131.499     1.430   340.923     5.402     6.753     0.829     0.005     0.004     0.645   207.895     0.264     0.000 .00000E+00 0.000E+00 0.000E+00 0.000E+00 0.000E+00 0.000E+00
BIGSUB   3        0   12.12200E+00   450.400     0.000   147.439    96.668   103.588     6.289   123.067     1.488   339.660     7.197     5.963     0.733     0.005     0.004     0.572   214.987     0.281     0.000 .00000E+00 0.000E+00 0.000E+00 0.000E+00 0.000E+00 0.000E+00
BIGSUB   4        0   12.11502E+00   450.400     0.000   147.468    96.361    96.326     4.225   129.575     1.198   341.311     7.357     6.287     0.773     0.004     0.003     0.605   210.453     0.264     0.000 .00000E+00 0.000E+00 0.000E+00 0.000E+00 0.000E+00 0.000E+00
BIGSUB   5        0   12.20828E-01   450.400     0.000   147.333    96.358   149.409    30.595    94.907    10.987   323.224     0.625     3.117     0.384     0.029     0.022     0.280   216.717     0.492     0.002 .00000E+00 0.000E+00 0.000E+00 0.000E+00 0.000E+00 0.000E+00
BIGSUB   6        0   12.35910E-02   450.400     0.000   147.307   100.423   157.588    44.348   109.613    17.080   319.078     0.303     3.071     0.376     0.007     0.022     0.271   191.514     0.315     0.003 .00000E+00 0.000E+00 0.000E+00 0.000E+00 0.000E+00 0.000E+00
BIGSUB   7        0   12.76644E-01   450.400     0.000   147.335    97.244   110.354    14.474   128.999     4.777   335.724     3.193     5.919     0.726     0.035     0.011     0.556   201.674     0.310     0.001 .00000E+00 0.000E+00 0.000E+00 0.000E+00 0.000E+00 0.000E+00
BIGSUB   1        0 2014.74695E-01  3844.300     0.000  1708.550  1028.600    96.284    40.514  1082.914    22.303  2799.784    17.109    40.091     4.909     0.044     0.055     3.884  1692.763     1.674     0.003 .00000E+00 0.000E+00 0.000E+00 0.000E+00 0.000E+00 0.000E+00
BIGSUB   2        0 2014.72232E-01  3844.301     0.000  1708.502  1025.772    96.585    35.396  1060.104    19.637  2804.790    23.974    41.955     5.135     0.042     0.044     4.081  1723.480     1.686     0.002 .00000E+00 0.000E+00 0.000E+00 0.000E+00 0.000E+00 0.000E+00
BIGSUB   3        0 2014.12200E+00  3844.299     0.000  1708.586  1030.758   103.588    43.180  1001.530    24.975  2798.650    31.928    41.838     5.120     0.085     0.039     4.082  1770.243     1.928     0.003 .00000E+00 0.000E+00 0.000E+00 0.000E+00 0.000E+00 0.000E+00
BIGSUB   4        0 2014.11502E+00  3844.300     0.000  1708.701  1023.785    96.326    30.400  1046.223    16.370  2808.299    32.643    44.000     5.385     0.039     0.033     4.300  1744.365     1.691     0.002 .00000E+00 0.000E+00 0.000E+00 0.000E+00 0.000E+00 0.000E+00
BIGSUB   5        0 2014.20828E-01  3844.300     0.000  1708.177  1097.220   149.409   214.635   812.598   154.663  2701.981     2.894    16.482     2.029     1.111     0.160     1.504  1724.964     6.570     0.018 .00000E+00 0.000E+00 0.000E+00 0.000E+00 0.000E+00 0.000E+00
BIGSUB   6        0 2014.35910E-02  3844.300     0.000  1708.075  1108.331   157.588   298.839   931.276   226.637  2684.027     1.407    15.220     1.867     0.049     0.187     1.376  1512.406     1.704     0.026 .00000E+00 0.000E+00 0.000E+00 0.000E+00 0.000E+00 0.000E+00
BIGSUB   7        0 2014.76644E-01  3844.300     0.000  1708.185  1049.121   110.354    97.105  1048.051    67.608  2772.206    14.175    33.159     4.057     1.001     0.081     3.182  1652.159     2.624     0.008 .00000E+00 0.000E+00 0.000E+00 0.000E+00 0.000E+00 0.000E+00
BIGSUB   1        0    1.74695E-01   682.500     0.000   139.116   101.035    97.895    15.804   239.117     3.290   559.476    18.023    35.475     4.336     0.005     0.016     3.449   316.907     0.424     0.001 .00000E+00 0.000E+00 0.000E+00 0.000E+00 0.000E+00 0.000E+00
BIGSUB   2        0    1.72232E-01   682.500     0.000   139.090   101.038    98.242    14.036   234.312     2.991   560.745    25.244    37.755     4.611     0.005     0.013     3.688   323.301     0.431     0.001 .00000E+00 0.000E+00 0.000E+00 0.000E+00 0.000E+00 0.000E+00
BIGSUB   3        0    1.12200E+00   682.500     0.000   139.137   101.199   105.203    15.941   220.179     3.997   559.432    33.662    38.633     4.716     0.005     0.012     3.782   335.089     0.450     0.001 .00000E+00 0.000E+00 0.000E+00 0.000E+00 0.000E+00 0.000E+00
BIGSUB   4        0    1.11502E+00   682.500     0.000   139.200   101.076    98.025    12.373   231.526     2.448   561.646    34.367    40.208     4.909     0.004     0.011     3.944   327.553     0.434     0.001 .00000E+00 0.000E+00 0.000E+00 0.000E+00 0.000E+00 0.000E+00
BIGSUB   5        0    1.20828E-01   682.500     0.000   138.909   100.452   150.552    62.505   173.867    23.246   533.829     3.097    15.258     1.872     0.033     0.044     1.403   335.885     0.667     0.007 .00000E+00 0.000E+00 0.000E+00 0.000E+00 0.000E+00 0.000E+00
BIGSUB   6        0    1.35910E-02   682.500     0.000   138.853   103.086   158.046    81.414   189.648    35.090   526.159     1.620    15.309     1.875     0.006     0.040     1.375   300.238     0.403     0.011 .00000E+00 0.000E+00 0.000E+00 0.000E+00 0.000E+00 0.000E+00
BIGSUB   7        0    1.76644E-01   682.500     0.000   138.914   101.499   112.188    30.156   227.544    10.428   551.879    14.953    29.865     3.647     0.031     0.024     2.881   313.526     0.468     0.003 .00000E+00 0.000E+00 0.000E+00 0.000E+00 0.000E+00 0.000E+00
BIGSUB   1        0    2.74695E-01   310.400     0.000   148.658   109.039    80.390     4.217    68.649     4.456   228.656     5.791     5.997     0.733     0.000     0.002     0.583   155.327     0.065     0.002 .00000E+00 0.000E+00 0.000E+00 0.000E+00 0.000E+00 0.000E+00
BIGSUB   2        0    2.72232E-01   310.400     0.000   148.630   109.300    80.574     3.648    66.717     3.881   228.661     8.089     5.545     0.677     0.000     0.002     0.542   157.866     0.066     0.001 .00000E+00 0.000E+00 0.000E+00 0.000E+00 0.000E+00 0.000E+00
BIGSUB   3        0    2.12200E+00   310.400     0.000   148.678   109.849    87.333     4.251    61.887     5.499   229.680    10.772     4.814     0.588     0.008     0.002     0.471   162.063     0.194     0.002 .00000E+00 0.000E+00 0.000E+00 0.000E+00 0.000E+00 0.000E+00
BIGSUB   4        0    2.11502E+00   310.400     0.000   148.743   109.462    80.251     3.095    65.632     3.162   228.543    11.006     5.050     0.616     0.000     0.001     0.496   159.579     0.067     0.001 .00000E+00 0.000E+00 0.000E+00 0.000E+00 0.000E+00 0.000E+00
BIGSUB   5        0    2.20828E-01   310.400     0.000   148.447   113.158   130.939    20.710    47.254    32.769   239.692     0.997     3.454     0.425     0.317     0.010     0.315   158.616     2.999     0.011 .00000E+00 0.000E+00 0.000E+00 0.000E+00 0.000E+00 0.000E+00
BIGSUB   6        0    2.35910E-02   310.400     0.000   148.389   112.099   140.763    27.961    54.231    45.400   243.023     0.517     3.762     0.461     0.001     0.010     0.337   141.935     0.074     0.015 .00000E+00 0.000E+00 0.000E+00 0.000E+00 0.000E+00 0.000E+00
BIGSUB   7        0    2.76644E-01   310.400     0.000   148.451   111.210    93.547     9.270    66.220    13.597   231.771     4.782     5.015     0.613     0.570     0.007     0.482   151.463     0.656     0.004 .00000E+00 0.000E+00 0.000E+00 0.000E+00 0.000E+00 0.000E+00
BIGSUB   1        0    3.74695E-01   174.400     0.000   136.376    97.877    74.953     0.062     6.802     3.791    85.658     0.002     0.003     0.000     0.000     0.000     0.000    74.791     0.001     0.001 .00000E+00 0.000E+00 0.000E+00 0.000E+00 0.000E+00 0.000E+00
BIGSUB   2        0    3.72232E-01   174.400     0.000   136.357    97.825    74.915     0.000     6.094     3.342    85.510     0.002     0.002     0.000     0.000     0.000     0.000    75.833     0.001     0.001 .00000E+00 0.000E+00 0.000E+00 0.000E+00 0.000E+00 0.000E+00
BIGSUB   3        0    3.12200E+00   174.400     0.000   136.391    98.581    81.703     0.130     5.205     4.758    86.054     0.003     0.002     0.000     0.000     0.000     0.000    75.811     0.010     0.001 .00000E+00 0.000E+00 0.000E+00 0.000E+00 0.000E+00 0.000E+00
BIGSUB   4        0    3.11502E+00   174.400     0.000   136.437    97.748    74.302     0.010     5.684     2.742    85.230     0.003     0.002     0.000     0.000     0.000     0.000    76.597     0.001     0.000 .00000E+00 0.000E+00 0.000E+00 0.000E+00 0.000E+00 0.000E+00
BIGSUB   5        0    3.20828E-01   174.400     0.000   136.226   109.618   128.540     0.061     4.473    28.838    96.969     0.000     0.001     0.000     0.000     0.001     0.000    62.402     0.239     0.005 .00000E+00 0.000E+00 0.000E+00 0.000E+00 0.000E+00 0.000E+00
BIGSUB   6        0    3.35910E-02   174.400     0.000   136.186   105.651   148.062     0.000     8.869    39.438   102.421     0.000     0.000     0.000     0.000     0.002     0.000    52.393     0.001     0.007 .00000E+00 0.000E+00 0.000E+00 0.000E+00 0.000E+00 0.000E+00
BIGSUB   7        0    3.76644E-01   174.400     0.000   136.230   101.518    90.262     0.019     7.414    11.811    88.274     0.001     0.003     0.000     0.018     0.001     0.000    68.462     0.038     0.002 .00000E+00 0.000E+00 0.000E+00 0.000E+00 0.000E+00 0.000E+00
BIGSUB   1        0    4.74695E-01   364.500     0.000   144.786    98.158    83.308     2.158   108.527     1.982   258.303     0.063     0.091     0.011     0.001     0.003     0.008   147.559     0.022     0.000 .00000E+00 0.000E+00 0.000E+00 0.000E+00 0.000E+00 0.000E+00
BIGSUB   2        0    4.72232E-01   364.500     0.000   144.789    97.766    83.634     1.843   106.113     1.471   258.105     0.087     0.085     0.010     0.000     0.002     0.008   150.316     0.023     0.000 .00000E+00 0.000E+00 0.000E+00 0.000E+00 0.000E+00 0.000E+00
BIGSUB   3        0    4.12200E+00   364.500     0.000   144.784    98.561    91.051     1.799   101.560     1.075   256.358     0.117     0.087     0.011     0.001     0.002     0.008   153.485     0.025     0.000 .00000E+00 0.000E+00 0.000E+00 0.000E+00 0.000E+00 0.000E+00
BIGSUB   4        0    4.11502E+00   364.500     0.000   144.777    97.499    83.388     1.471   104.588     1.084   257.965     0.118     0.079     0.010     0.000     0.001     0.007   152.116     0.023     0.000 .00000E+00 0.000E+00 0.000E+00 0.000E+00 0.000E+00 0.000E+00
BIGSUB   5        0    4.20828E-01   364.500     0.000   144.808   112.894   131.703    13.732    88.313    11.529   247.526     0.032     0.267     0.034     0.004     0.013     0.020   146.604     0.046     0.001 .00000E+00 0.000E+00 0.000E+00 0.000E+00 0.000E+00 0.000E+00
BIGSUB   6        0    4.35910E-02   364.500     0.000   144.813   107.155   149.033    20.636   106.154    16.642   254.015     0.011     0.080     0.010     0.001     0.019     0.007   129.743     0.021     0.001 .00000E+00 0.000E+00 0.000E+00 0.000E+00 0.000E+00 0.000E+00
BIGSUB   7        0    4.76644E-01   364.500     0.000   144.807   102.159    97.517     5.310   107.019     4.470   254.974     0.056     0.117     0.014     0.003     0.005     0.010   142.984     0.028     0.000 .00000E+00 0.000E+00 0.000E+00 0.000E+00 0.000E+00 0.000E+00
BIGSUB   1        0    5.74695E-01   421.400     0.000   126.050    89.737    95.881     6.147   103.950     2.231   314.911     0.062     0.100     0.012     0.008     0.004     0.009   208.511     0.174     0.000 .00000E+00 0.000E+00 0.000E+00 0.000E+00 0.000E+00 0.000E+00
BIGSUB   2        0    5.72232E-01   421.400     0.000   126.074    88.804    96.293     5.429   101.381     1.836   316.049     0.087     0.098     0.012     0.009     0.003     0.009   212.641     0.183     0.000 .00000E+00 0.000E+00 0.000E+00 0.000E+00 0.000E+00 0.000E+00
BIGSUB   3        0    5.12200E+00   421.400     0.000   126.032    88.723   103.345     6.756    94.654     2.214   315.577     0.116     0.092     0.012     0.008     0.002     0.008   218.487     0.189     0.000 .00000E+00 0.000E+00 0.000E+00 0.000E+00 0.000E+00 0.000E+00
BIGSUB   4        0    5.11502E+00   421.400     0.000   125.974    88.208    96.083     4.754    99.884     1.491   316.910     0.119     0.094     0.012     0.009     0.002     0.008   215.370     0.188     0.000 .00000E+00 0.000E+00 0.000E+00 0.000E+00 0.000E+00 0.000E+00
BIGSUB   5        0    5.20828E-01   421.400     0.000   126.237    96.703   148.641    29.186    69.402    13.615   292.733     0.018     0.141     0.018     0.005     0.010     0.010   208.674     0.187     0.001 .00000E+00 0.000E+00 0.000E+00 0.000E+00 0.000E+00 0.000E+00
BIGSUB   6        0    5.35910E-02   421.400     0.000   126.287    96.918   157.418    43.802    84.316    20.589   293.922     0.005     0.041     0.005     0.002     0.016     0.004   187.571     0.117     0.001 .00000E+00 0.000E+00 0.000E+00 0.000E+00 0.000E+00 0.000E+00
BIGSUB   7        0    5.76644E-01   421.400     0.000   126.233    90.599   110.035    14.509    99.361     5.746   309.522     0.053     0.104     0.013     0.011     0.005     0.009   203.938     0.186     0.000 .00000E+00 0.000E+00 0.000E+00 0.000E+00 0.000E+00 0.000E+00
BIGSUB   1        0    6.74695E-01   230.400     0.000   162.447    71.811    91.806     2.575    48.529     2.511   162.150     0.041     0.074     0.009     0.010     0.002     0.007   110.901     0.120     0.000 .00000E+00 0.000E+00 0.000E+00 0.000E+00 0.000E+00 0.000E+00
BIGSUB   2        0    6.72232E-01   230.400     0.000   162.493    71.525    92.102     2.306    46.980     2.215   162.487     0.058     0.073     0.009     0.010     0.002     0.007   113.108     0.122     0.000 .00000E+00 0.000E+00 0.000E+00 0.000E+00 0.000E+00 0.000E+00
BIGSUB   3        0    6.12200E+00   230.400     0.000   162.413    71.421    99.391     2.906    42.730     3.026   162.575     0.077     0.063     0.008     0.009     0.001     0.006   116.603     0.129     0.000 .00000E+00 0.000E+00 0.000E+00 0.000E+00 0.000E+00 0.000E+00
BIGSUB   4        0    6.11502E+00   230.400     0.000   162.304    71.294    91.832     2.032    46.063     1.872   162.673     0.079     0.070     0.009     0.009     0.001     0.006   114.579     0.124     0.000 .00000E+00 0.000E+00 0.000E+00 0.000E+00 0.000E+00 0.000E+00
BIGSUB   5        0    6.20828E-01   230.400     0.000   162.798    66.230   148.151    15.618    29.501    17.070   166.395     0.008     0.054     0.007     0.015     0.005     0.004   118.815     0.192     0.001 .00000E+00 0.000E+00 0.000E+00 0.000E+00 0.000E+00 0.000E+00
BIGSUB   6        0    6.35910E-02   230.400     0.000   162.892    77.543   155.744    18.398    36.224    25.697   162.764     0.001     0.010     0.001     0.009     0.008     0.001    99.423     0.107     0.001 .00000E+00 0.000E+00 0.000E+00 0.000E+00 0.000E+00 0.000E+00
BIGSUB   7        0    6.76644E-01   230.400     0.000   162.790    70.117   107.062     6.970    46.137     7.653   163.773     0.034     0.068     0.008     0.018     0.003     0.006   109.517     0.135     0.000 .00000E+00 0.000E+00 0.000E+00 0.000E+00 0.000E+00 0.000E+00
BIGSUB   1        0    7.74695E-01   101.300     0.000   169.831    70.316    74.580     0.402     3.150     1.504    50.738     0.002     0.004     0.001     0.001     0.000     0.000    45.881     0.039     0.000 .00000E+00 0.000E+00 0.000E+00 0.000E+00 0.000E+00 0.000E+00
BIGSUB   2        0    7.72232E-01   101.300     0.000   169.870    70.331    74.754     0.306     2.834     1.487    50.914     0.003     0.004     0.001     0.001     0.000     0.000    46.416     0.038     0.000 .00000E+00 0.000E+00 0.000E+00 0.000E+00 0.000E+00 0.000E+00
BIGSUB   3        0    7.12200E+00   101.300     0.000   169.802    71.101    81.464     0.293     2.401     1.905    51.211     0.004     0.003     0.000     0.001     0.000     0.000    46.695     0.039     0.000 .00000E+00 0.000E+00 0.000E+00 0.000E+00 0.000E+00 0.000E+00
BIGSUB   4        0    7.11502E+00   101.300     0.000   169.710    70.284    74.418     0.224     2.670     1.358    50.973     0.004     0.004     0.001     0.001     0.000     0.000    46.792     0.037     0.000 .00000E+00 0.000E+00 0.000E+00 0.000E+00 0.000E+00 0.000E+00
BIGSUB   5        0    7.20828E-01   101.300     0.000   170.130    79.184   121.371     3.520     1.816    13.674    61.335     0.000     0.000     0.000     0.004     0.000     0.000    44.849     0.087     0.001 .00000E+00 0.000E+00 0.000E+00 0.000E+00 0.000E+00 0.000E+00
BIGSUB   6        0    7.35910E-02   101.300     0.000   170.210    76.368   137.804     3.751     3.410    17.926    59.374     0.000     0.000     0.000     0.002     0.001     0.000    36.658     0.044     0.001 .00000E+00 0.000E+00 0.000E+00 0.000E+00 0.000E+00 0.000E+00
BIGSUB   7        0    7.76644E-01   101.300     0.000   170.123    73.204    87.265     1.436     3.933     5.997    54.096     0.002     0.004     0.000     0.005     0.000     0.000    43.705     0.048     0.000 .00000E+00 0.000E+00 0.000E+00 0.000E+00 0.000E+00 0.000E+00
BIGSUB   1        0    8.74695E-01   171.700     0.000   171.913    57.439    69.624     0.994    39.298     0.729   119.171     0.120     0.233     0.029     0.003     0.002     0.022    78.974     0.130     0.000 .00000E+00 0.000E+00 0.000E+00 0.000E+00 0.000E+00 0.000E+00
BIGSUB   2        0    8.72232E-01   171.700     0.000   171.943    57.362    69.732     0.869    38.101     0.584   119.272     0.169     0.234     0.029     0.003     0.002     0.022    80.437     0.130     0.000 .00000E+00 0.000E+00 0.000E+00 0.000E+00 0.000E+00 0.000E+00
BIGSUB   3        0    8.12200E+00   171.700     0.000   171.890    58.467    76.272     0.975    35.391     0.653   118.329     0.225     0.207     0.026     0.003     0.001     0.020    82.107     0.129     0.000 .00000E+00 0.000E+00 0.000E+00 0.000E+00 0.000E+00 0.000E+00
BIGSUB   4        0    8.11502E+00   171.700     0.000   171.819    57.253    69.413     0.708    37.385     0.480   119.402     0.230     0.223     0.028     0.003     0.001     0.021    81.408     0.130     0.000 .00000E+00 0.000E+00 0.000E+00 0.000E+00 0.000E+00 0.000E+00
BIGSUB   5        0    8.20828E-01   171.700     0.000   172.142    75.010   109.435     6.495    26.320     4.714   107.750     0.021     0.115     0.014     0.003     0.005     0.010    75.854     0.102     0.000 .00000E+00 0.000E+00 0.000E+00 0.000E+00 0.000E+00 0.000E+00
BIGSUB   6        0    8.35910E-02   171.700     0.000   172.204    65.364   132.408     9.859    34.408     6.699   109.786     0.009     0.086     0.010     0.004     0.007     0.007    67.495     0.127     0.000 .00000E+00 0.000E+00 0.000E+00 0.000E+00 0.000E+00 0.000E+00
BIGSUB   7        0    8.76644E-01   171.700     0.000   172.137    62.499    80.809     2.497    37.420     2.200   115.801     0.100     0.201     0.025     0.004     0.003     0.019    75.785     0.118     0.000 .00000E+00 0.000E+00 0.000E+00 0.000E+00 0.000E+00 0.000E+00
BIGSUB   1        0    9.74695E-01    30.500     0.000   151.135    28.802    61.951     0.000     0.002     0.427     9.923     0.000     0.000     0.000     0.000     0.000     0.000     9.359     0.023     0.000 .00000E+00 0.000E+00 0.000E+00 0.000E+00 0.000E+00 0.000E+00
BIGSUB   2        0    9.72232E-01    30.500     0.000   151.130    28.711    62.045     0.000     0.001     0.317     9.903     0.000     0.000     0.000     0.000     0.000     0.000     9.466     0.023     0.000 .00000E+00 0.000E+00 0.000E+00 0.000E+00 0.000E+00 0.000E+00
BIGSUB   3        0    9.12200E+00    30.500     0.000   151.139    29.716    67.653     0.000     0.000     0.141     9.675     0.000     0.000     0.000     0.000     0.000     0.000     9.394     0.021     0.000 .00000E+00 0.000E+00 0.000E+00 0.000E+00 0.000E+00 0.000E+00
BIGSUB   4        0    9.11502E+00    30.500     0.000   151.151    28.639    61.707     0.000     0.000     0.236     9.896     0.000     0.000     0.000     0.000     0.000     0.000     9.558     0.023     0.000 .00000E+00 0.000E+00 0.000E+00 0.000E+00 0.000E+00 0.000E+00
BIGSUB   5        0    9.20828E-01    30.500     0.000   151.096    42.942    89.710     0.000     0.013     2.399    10.369     0.000     0.000     0.000     0.000     0.000     0.000     7.261     0.009     0.000 .00000E+00 0.000E+00 0.000E+00 0.000E+00 0.000E+00 0.000E+00
BIGSUB   6        0    9.35910E-02    30.500     0.000   151.085    34.328   122.715     0.000     0.042     3.318    10.135     0.000     0.000     0.000     0.000     0.000     0.000     5.818     0.008     0.000 .00000E+00 0.000E+00 0.000E+00 0.000E+00 0.000E+00 0.000E+00
BIGSUB   7        0    9.76644E-01    30.500     0.000   151.097    32.256    70.661     0.001     0.018     0.809     9.507     0.000     0.000     0.000     0.000     0.000     0.000     8.363     0.017     0.000 .00000E+00 0.000E+00 0.000E+00 0.000E+00 0.000E+00 0.000E+00
BIGSUB   1        0   10.74695E-01   211.100     0.000   148.172    64.232    70.439     1.130    29.635     0.297   137.253     0.339     0.653     0.080     0.004     0.001     0.062   107.210     0.202     0.000 .00000E+00 0.000E+00 0.000E+00 0.000E+00 0.000E+00 0.000E+00
BIGSUB   2        0   10.72232E-01   211.100     0.000   148.170    64.143    70.435     0.950    28.155     0.226   137.532     0.477     0.622     0.077     0.004     0.001     0.060   109.054     0.201     0.000 .00000E+00 0.000E+00 0.000E+00 0.000E+00 0.000E+00 0.000E+00
BIGSUB   3        0   10.12200E+00   211.100     0.000   148.174    64.499    76.984     0.916    25.425     0.125   136.188     0.633     0.492     0.061     0.003     0.001     0.048   110.524     0.200     0.000 .00000E+00 0.000E+00 0.000E+00 0.000E+00 0.000E+00 0.000E+00
BIGSUB   4        0   10.11502E+00   211.100     0.000   148.179    64.077    70.044     0.746    27.292     0.181   137.792     0.649     0.549     0.068     0.003     0.001     0.053   110.236     0.200     0.000 .00000E+00 0.000E+00 0.000E+00 0.000E+00 0.000E+00 0.000E+00
BIGSUB   5        0   10.20828E-01   211.100     0.000   148.155    65.817   108.210     7.106    16.996     1.746   121.687     0.052     0.237     0.029     0.003     0.003     0.021   102.365     0.187     0.000 .00000E+00 0.000E+00 0.000E+00 0.000E+00 0.000E+00 0.000E+00
BIGSUB   6        0   10.35910E-02   211.100     0.000   148.150    70.378   136.317    10.858    28.383     2.526   119.337     0.023     0.224     0.027     0.006     0.006     0.020    87.627     0.204     0.000 .00000E+00 0.000E+00 0.000E+00 0.000E+00 0.000E+00 0.000E+00
BIGSUB   7        0   10.76644E-01   211.100     0.000   148.155    65.108    82.574     2.607    28.170     0.585   131.957     0.280     0.533     0.065     0.005     0.002     0.050   102.940     0.191     0.000 .00000E+00 0.000E+00 0.000E+00 0.000E+00 0.000E+00 0.000E+00
BIGSUB   1        0   11.74695E-01   541.900     0.000   148.965    72.086    94.379     7.004   201.564     0.643   437.482     7.531    11.097     1.363     0.004     0.008     1.058   235.185     0.378     0.000 .00000E+00 0.000E+00 0.000E+00 0.000E+00 0.000E+00 0.000E+00
BIGSUB   2        0   11.72232E-01   541.900     0.000   148.955    71.997    94.712     6.095   197.459     0.447   437.918    10.594     9.872     1.215     0.004     0.006     0.952   239.933     0.379     0.000 .00000E+00 0.000E+00 0.000E+00 0.000E+00 0.000E+00 0.000E+00
BIGSUB   3        0   11.12200E+00   541.900     0.000   148.973    71.867   101.712     7.439   186.829     0.242   435.903    14.144     8.265     1.020     0.003     0.005     0.805   248.741     0.391     0.000 .00000E+00 0.000E+00 0.000E+00 0.000E+00 0.000E+00 0.000E+00
BIGSUB   4        0   11.11502E+00   541.900     0.000   148.997    71.932    94.478     5.217   195.069     0.280   438.484    14.435     8.420     1.039     0.003     0.004     0.825   243.069     0.379     0.000 .00000E+00 0.000E+00 0.000E+00 0.000E+00 0.000E+00 0.000E+00
BIGSUB   5        0   11.20828E-01   541.900     0.000   148.887    63.364   145.399    34.001   146.393     3.235   408.427     1.310     7.344     0.901     0.006     0.024     0.652   258.317     0.458     0.000 .00000E+00 0.000E+00 0.000E+00 0.000E+00 0.000E+00 0.000E+00
BIGSUB   6        0   11.35910E-02   541.900     0.000   148.866    77.278   154.683    52.470   172.248     4.390   396.684     0.702     8.055     0.986     0.005     0.031     0.704   219.372     0.422     0.000 .00000E+00 0.000E+00 0.000E+00 0.000E+00 0.000E+00 0.000E+00
BIGSUB   7        0   11.76644E-01   541.900     0.000   148.889    69.909   108.950    16.126   193.593     0.926   428.450     6.290    10.079     1.237     0.007     0.012     0.947   233.719     0.388     0.000 .00000E+00 0.000E+00 0.000E+00 0.000E+00 0.000E+00 0.000E+00
BIGSUB   1        0   12.74695E-01   597.700     0.000   160.162    79.930    98.559     9.182   285.194     2.239   503.222    16.270    11.141     1.368     0.003     0.008     1.061   215.671     0.268     0.001 .00000E+00 0.000E+00 0.000E+00 0.000E+00 0.000E+00 0.000E+00
BIGSUB   2        0   12.72232E-01   597.700     0.000   160.161    79.875    98.909     8.199   281.494     1.934   503.869    22.841     8.754     1.076     0.002     0.006     0.844   220.338     0.272     0.000 .00000E+00 0.000E+00 0.000E+00 0.000E+00 0.000E+00 0.000E+00
BIGSUB   3        0   12.12200E+00   597.700     0.000   160.164    80.210   105.866     9.723   269.478     2.468   502.475    30.534     7.092     0.872     0.003     0.006     0.685   230.407     0.290     0.001 .00000E+00 0.000E+00 0.000E+00 0.000E+00 0.000E+00 0.000E+00
BIGSUB   4        0   12.11502E+00   597.700     0.000   160.168    79.806    98.683     7.254   279.240     1.640   504.517    31.104     6.627     0.816     0.002     0.004     0.649   223.549     0.273     0.000 .00000E+00 0.000E+00 0.000E+00 0.000E+00 0.000E+00 0.000E+00
BIGSUB   5        0   12.20828E-01   597.700     0.000   160.150    82.043   151.241    39.757   228.645    14.562   481.594     3.000    10.452     1.284     0.030     0.051     0.922   237.769     0.523     0.004 .00000E+00 0.000E+00 0.000E+00 0.000E+00 0.000E+00 0.000E+00
BIGSUB   6        0   12.35910E-02   597.700     0.000   160.146    85.670   158.731    52.736   240.263    22.853   475.603     1.716    12.214     1.495     0.004     0.040     1.064   211.589     0.292     0.005 .00000E+00 0.000E+00 0.000E+00 0.000E+00 0.000E+00 0.000E+00
BIGSUB   7        0   12.76644E-01   597.700     0.000   160.150    81.239   112.595    19.075   274.036     6.388   496.937    13.633    10.706     1.312     0.024     0.020     1.000   216.234     0.320     0.001 .00000E+00 0.000E+00 0.000E+00 0.000E+00 0.000E+00 0.000E+00
BIGSUB   1        0 2015.74695E-01  3837.800     0.000  1807.612   940.462    98.559    49.675  1134.416    24.101  2866.944    48.244    64.867     7.943     0.040     0.047     6.260  1706.276     1.847     0.005 .00000E+00 0.000E+00 0.000E+00 0.000E+00 0.000E+00 0.000E+00
BIGSUB   2        0 2015.72232E-01  3837.801     0.000  1807.661   938.677    98.909    43.683  1109.642    20.731  2870.965    67.650    63.045     7.718     0.037     0.037     6.133  1738.710     1.868     0.004 .00000E+00 0.000E+00 0.000E+00 0.000E+00 0.000E+00 0.000E+00
BIGSUB   3        0 2015.12200E+00  3837.800     0.000  1807.575   944.195   105.866    51.129  1045.737    26.102  2863.456    90.286    59.751     7.314     0.043     0.032     5.834  1789.406     2.066     0.004 .00000E+00 0.000E+00 0.000E+00 0.000E+00 0.000E+00 0.000E+00
BIGSUB   4        0 2015.11502E+00  3837.800     0.000  1807.459   937.279    98.683    37.883  1095.032    16.974  2874.031    92.115    61.325     7.508     0.035     0.026     6.011  1760.404     1.879     0.003 .00000E+00 0.000E+00 0.000E+00 0.000E+00 0.000E+00 0.000E+00
BIGSUB   5        0 2015.20828E-01  3837.800     0.000  1807.984  1007.415   151.241   232.691   832.992   167.398  2768.305     8.536    37.322     4.584     0.421     0.164     3.356  1757.412     5.696     0.029 .00000E+00 0.000E+00 0.000E+00 0.000E+00 0.000E+00 0.000E+00
BIGSUB   6        0 2015.35910E-02  3837.800     0.000  1808.083  1011.838   158.731   321.886   958.198   240.570  2753.222     4.605    39.780     4.871     0.041     0.180     3.520  1539.862     1.820     0.043 .00000E+00 0.000E+00 0.000E+00 0.000E+00 0.000E+00 0.000E+00
BIGSUB   7        0 2015.76644E-01  3837.800     0.000  1807.975   961.317   112.595   107.976  1090.865    70.611  2836.943    40.185    56.694     6.936     0.696     0.082     5.404  1670.636     2.596     0.012 .00000E+00 0.000E+00 0.000E+00 0.000E+00 0.000E+00 0.000E+00
BIGSUB   1        0    1.74695E-01   122.100     0.000   179.129    83.699    73.961     1.130     5.732     3.456    71.582     0.413     0.678     0.083     0.000     0.000     0.066    62.214     0.039     0.001 .00000E+00 0.000E+00 0.000E+00 0.000E+00 0.000E+00 0.000E+00
BIGSUB   2        0    1.72232E-01   122.100     0.000   179.122    83.594    74.206     0.981     5.331     3.270    71.810     0.573     0.750     0.091     0.000     0.000     0.074    63.050     0.039     0.001 .00000E+00 0.000E+00 0.000E+00 0.000E+00 0.000E+00 0.000E+00
BIGSUB   3        0    1.12200E+00   122.100     0.000   179.134    84.181    80.977     1.020     4.676     4.554    72.965     0.754     0.820     0.100     0.000     0.000     0.081    63.547     0.041     0.001 .00000E+00 0.000E+00 0.000E+00 0.000E+00 0.000E+00 0.000E+00
BIGSUB   4        0    1.11502E+00   122.100     0.000   179.151    83.475    73.920     0.839     5.128     2.733    71.663     0.779     0.872     0.106     0.000     0.000     0.086    63.665     0.039     0.001 .00000E+00 0.000E+00 0.000E+00 0.000E+00 0.000E+00 0.000E+00
BIGSUB   5        0    1.20828E-01   122.100     0.000   179.076    89.112   126.735     4.362     3.057    24.621    85.230     0.053     0.166     0.020     0.002     0.001     0.015    56.678     0.088     0.007 .00000E+00 0.000E+00 0.000E+00 0.000E+00 0.000E+00 0.000E+00
BIGSUB   6        0    1.35910E-02   122.100     0.000   179.061    92.401   134.176     5.876     4.865    37.859    93.305     0.020     0.170     0.021     0.001     0.001     0.015    49.330     0.040     0.011 .00000E+00 0.000E+00 0.000E+00 0.000E+00 0.000E+00 0.000E+00
BIGSUB   7        0    1.76644E-01   122.100     0.000   179.077    85.892    88.082     2.152     6.094    11.244    76.235     0.332     0.513     0.063     0.006     0.001     0.050    58.492     0.050     0.003 .00000E+00 0.000E+00 0.000E+00 0.000E+00 0.000E+00 0.000E+00
BIGSUB   1        0    2.74695E-01   182.200     0.000   176.453    90.172    68.064     0.237     7.149     2.193    99.735     0.004     0.014     0.002     0.000     0.000     0.001    90.214     0.004     0.000 .00000E+00 0.000E+00 0.000E+00 0.000E+00 0.000E+00 0.000E+00
BIGSUB   2        0    2.72232E-01   182.200     0.000   176.465    90.518    67.961     0.032     6.187     2.030    99.759     0.005     0.012     0.002     0.000     0.000     0.001    91.385     0.004     0.000 .00000E+00 0.000E+00 0.000E+00 0.000E+00 0.000E+00 0.000E+00
BIGSUB   3        0    2.12200E+00   182.200     0.000   176.445    91.291    74.886     0.199     5.144     2.559    99.223     0.007     0.015     0.002     0.001     0.000     0.001    91.335     0.130     0.000 .00000E+00 0.000E+00 0.000E+00 0.000E+00 0.000E+00 0.000E+00
BIGSUB   4        0    2.11502E+00   182.200     0.000   176.418    90.636    67.271     0.021     5.646     1.761    99.762     0.007     0.015     0.002     0.000     0.000     0.001    92.219     0.004     0.000 .00000E+00 0.000E+00 0.000E+00 0.000E+00 0.000E+00 0.000E+00
BIGSUB   5        0    2.20828E-01   182.200     0.000   176.541    96.853   128.730     0.367     5.555    16.069    99.620     0.001     0.010     0.001     0.042     0.001     0.001    77.158     3.004     0.002 .00000E+00 0.000E+00 0.000E+00 0.000E+00 0.000E+00 0.000E+00
BIGSUB   6        0    2.35910E-02   182.200     0.000   176.565    95.295   143.661     0.000    10.675    23.713   102.098     0.000     0.003     0.000     0.000     0.002     0.000    66.525     0.005     0.003 .00000E+00 0.000E+00 0.000E+00 0.000E+00 0.000E+00 0.000E+00
BIGSUB   7        0    2.76644E-01   182.200     0.000   176.539    92.824    84.740     0.118     9.208     7.194    99.895     0.003     0.011     0.001     0.392     0.001     0.001    83.101     0.663     0.001 .00000E+00 0.000E+00 0.000E+00 0.000E+00 0.000E+00 0.000E+00
[...]
BIGSUB   6        0    4.35910E-02   986.500     0.000    99.025    84.428   161.240   120.053   358.309    25.056   787.964     0.012     0.156     0.019     0.005     0.062     0.014   403.448     0.073     0.001 .00000E+00 0.000E+00 0.000E+00 0.000E+00 0.000E+00 0.000E+00
BIGSUB   7        0    4.76644E-01   986.500     0.000    99.015    81.480   115.032    43.464   416.343     7.122   839.955     0.102     0.458     0.057     0.020     0.023     0.039   416.115     0.113     0.000 .00000E+00 0.000E+00 0.000E+00 0.000E+00 0.000E+00 0.000E+00
BIGSUB   1        0    5.74695E-01    55.900     0.000   132.545    33.475    71.485     2.399    14.211     5.324    71.716     0.002     0.022     0.003     0.002     0.001     0.002    51.891     0.026     0.000 .00000E+00 0.000E+00 0.000E+00 0.000E+00 0.000E+00 0.000E+00
BIGSUB   2        0    5.72232E-01    55.900     0.000   132.560    32.126    73.169     2.138    13.802     4.639    71.677     0.003     0.027     0.003     0.002     0.000     0.003    52.979     0.028     0.000 .00000E+00 0.000E+00 0.000E+00 0.000E+00 0.000E+00 0.000E+00
BIGSUB   3        0    5.12200E+00    55.900     0.000   132.533    32.261    79.984     2.292    12.761     6.623    74.815     0.004     0.034     0.004     0.002     0.000     0.003    55.136     0.029     0.000 .00000E+00 0.000E+00 0.000E+00 0.000E+00 0.000E+00 0.000E+00
BIGSUB   4        0    5.11502E+00    55.900     0.000   132.497    31.331    73.734     1.903    13.577     3.834    71.412     0.005     0.034     0.004     0.002     0.000     0.003    53.778     0.028     0.000 .00000E+00 0.000E+00 0.000E+00 0.000E+00 0.000E+00 0.000E+00
BIGSUB   5        0    5.20828E-01    55.900     0.000   132.663    45.792   111.809     7.502     8.893    38.943   104.455     0.001     0.025     0.003     0.001     0.001     0.002    55.358     0.028     0.001 .00000E+00 0.000E+00 0.000E+00 0.000E+00 0.000E+00 0.000E+00
BIGSUB   6        0    5.35910E-02    55.900     0.000   132.695    43.252   121.920     9.828    10.295    53.819   115.459     0.000     0.003     0.000     0.000     0.002     0.000    49.602     0.017     0.002 .00000E+00 0.000E+00 0.000E+00 0.000E+00 0.000E+00 0.000E+00
BIGSUB   7        0    5.76644E-01    55.900     0.000   132.660    34.093    84.938     3.950    13.525    15.952    81.555     0.002     0.022     0.003     0.002     0.001     0.002    51.482     0.028     0.001 .00000E+00 0.000E+00 0.000E+00 0.000E+00 0.000E+00 0.000E+00
BIGSUB   1        0    6.74695E-01     2.600     0.000   133.414    11.882    61.725     0.000     0.000     3.368     4.123     0.000     0.000     0.000     0.000     0.000     0.000     0.458     0.009     0.000 .00000E+00 0.000E+00 0.000E+00 0.000E+00 0.000E+00 0.000E+00
BIGSUB   2        0    6.72232E-01     2.600     0.000   133.433    11.680    63.606     0.000     0.000     3.007     3.733     0.000     0.000     0.000     0.000     0.000     0.000     0.464     0.010     0.000 .00000E+00 0.000E+00 0.000E+00 0.000E+00 0.000E+00 0.000E+00
BIGSUB   3        0    6.12200E+00     2.600     0.000   133.400    11.922    70.182     0.000     0.000     4.401     5.162     0.000     0.000     0.000     0.000     0.000     0.000     0.460     0.010     0.000 .00000E+00 0.000E+00 0.000E+00 0.000E+00 0.000E+00 0.000E+00
BIGSUB   4        0    6.11502E+00     2.600     0.000   133.356    11.566    64.280     0.000     0.000     2.505     3.204     0.000     0.000     0.000     0.000     0.000     0.000     0.468     0.010     0.000 .00000E+00 0.000E+00 0.000E+00 0.000E+00 0.000E+00 0.000E+00
BIGSUB   5        0    6.20828E-01     2.600     0.000   133.558    12.959   101.087     0.000     0.000    25.552    27.140     0.000     0.000     0.000     0.000     0.000     0.000     0.348     0.012     0.000 .00000E+00 0.000E+00 0.000E+00 0.000E+00 0.000E+00 0.000E+00
BIGSUB   6        0    6.35910E-02     2.600     0.000   133.597    16.131   108.091     0.000     0.000    34.943    36.927     0.000     0.000     0.000     0.000     0.000     0.000     0.286     0.006     0.000 .00000E+00 0.000E+00 0.000E+00 0.000E+00 0.000E+00 0.000E+00
BIGSUB   7        0    6.76644E-01     2.600     0.000   133.555    11.753    75.359     0.000     0.000    10.442    11.443     0.000     0.000     0.000     0.000     0.000     0.000     0.408     0.010     0.000 .00000E+00 0.000E+00 0.000E+00 0.000E+00 0.000E+00 0.000E+00
BIGSUB   1        0    7.74695E-01   132.200     0.000   126.323    38.441    73.595     0.008    26.863     0.970    83.128     0.046     0.180     0.022     0.012     0.002     0.017    55.036     0.139     0.000 .00000E+00 0.000E+00 0.000E+00 0.000E+00 0.000E+00 0.000E+00
BIGSUB   2        0    7.72232E-01   132.200     0.000   126.349    38.650    74.859     0.000    26.719     0.900    83.446     0.065     0.227     0.028     0.012     0.001     0.021    55.596     0.142     0.000 .00000E+00 0.000E+00 0.000E+00 0.000E+00 0.000E+00 0.000E+00
BIGSUB   3        0    7.12200E+00   132.200     0.000   126.304    39.298    81.649     0.111    24.809     1.260    82.866     0.087     0.280     0.034     0.011     0.001     0.026    56.533     0.150     0.000 .00000E+00 0.000E+00 0.000E+00 0.000E+00 0.000E+00 0.000E+00
BIGSUB   4        0    7.11502E+00   132.200     0.000   126.244    38.716    75.091     0.005    26.493     0.738    83.626     0.089     0.287     0.035     0.012     0.001     0.027    56.192     0.143     0.000 .00000E+00 0.000E+00 0.000E+00 0.000E+00 0.000E+00 0.000E+00
BIGSUB   5        0    7.20828E-01   132.200     0.000   126.518    48.033   116.807     0.000    16.264     6.877    76.414     0.008     0.065     0.008     0.007     0.003     0.005    52.196     0.145     0.000 .00000E+00 0.000E+00 0.000E+00 0.000E+00 0.000E+00 0.000E+00
BIGSUB   6        0    7.35910E-02   132.200     0.000   126.570    40.667   134.375     0.000    21.241    10.140    76.869     0.003     0.037     0.005     0.009     0.005     0.003    44.019     0.122     0.000 .00000E+00 0.000E+00 0.000E+00 0.000E+00 0.000E+00 0.000E+00
BIGSUB   7        0    7.76644E-01   132.200     0.000   126.513    41.905    88.492     0.058    25.195     3.118    80.754     0.039     0.157     0.019     0.011     0.002     0.014    51.926     0.138     0.000 .00000E+00 0.000E+00 0.000E+00 0.000E+00 0.000E+00 0.000E+00
BIGSUB   1        0    8.74695E-01   160.100     0.000   189.289    76.731    72.671     0.330     9.710     0.059    83.481     0.036     0.082     0.010     0.003     0.001     0.008    73.508     0.102     0.000 .00000E+00 0.000E+00 0.000E+00 0.000E+00 0.000E+00 0.000E+00
BIGSUB   2        0    8.72232E-01   160.100     0.000   189.340    76.895    73.577     0.198     9.336     0.023    83.740     0.051     0.102     0.013     0.003     0.000     0.010    74.201     0.101     0.000 .00000E+00 0.000E+00 0.000E+00 0.000E+00 0.000E+00 0.000E+00
BIGSUB   3        0    8.12200E+00   160.100     0.000   189.251    78.354    79.872     0.155     8.200     0.138    82.968     0.068     0.123     0.015     0.003     0.000     0.012    74.421     0.104     0.000 .00000E+00 0.000E+00 0.000E+00 0.000E+00 0.000E+00 0.000E+00
BIGSUB   4        0    8.11502E+00   160.100     0.000   189.130    76.891    73.662     0.029     9.049     0.013    84.021     0.070     0.129     0.016     0.003     0.000     0.012    74.801     0.100     0.000 .00000E+00 0.000E+00 0.000E+00 0.000E+00 0.000E+00 0.000E+00
BIGSUB   5        0    8.20828E-01   160.100     0.000   189.681    96.969   109.427     1.145     4.955     0.067    69.683     0.004     0.014     0.002     0.002     0.001     0.001    63.822     0.089     0.000 .00000E+00 0.000E+00 0.000E+00 0.000E+00 0.000E+00 0.000E+00
BIGSUB   6        0    8.35910E-02   160.100     0.000   189.787    84.901   141.716     1.613     9.592     0.105    67.031     0.000     0.003     0.000     0.004     0.002     0.000    56.190     0.115     0.000 .00000E+00 0.000E+00 0.000E+00 0.000E+00 0.000E+00 0.000E+00
BIGSUB   7        0    8.76644E-01   160.100     0.000   189.672    83.488    86.262     0.067    10.108     0.038    78.550     0.030     0.067     0.008     0.004     0.001     0.006    68.001     0.095     0.000 .00000E+00 0.000E+00 0.000E+00 0.000E+00 0.000E+00 0.000E+00
BIGSUB   1        0    9.74695E-01   167.200     0.000   114.473    71.816    76.222     0.766    10.347     0.409    92.101     0.089     0.225     0.028     0.001     0.001     0.021    81.190     0.127     0.000 .00000E+00 0.000E+00 0.000E+00 0.000E+00 0.000E+00 0.000E+00
BIGSUB   2        0    9.72232E-01   167.200     0.000   114.433    71.837    76.858     0.590     9.963     0.294    92.400     0.125     0.282     0.035     0.001     0.001     0.027    82.006     0.127     0.000 .00000E+00 0.000E+00 0.000E+00 0.000E+00 0.000E+00 0.000E+00
BIGSUB   3        0    9.12200E+00   167.200     0.000   114.504    72.500    84.005     0.193     8.905     0.156    91.158     0.166     0.337     0.041     0.001     0.000     0.032    81.942     0.126     0.000 .00000E+00 0.000E+00 0.000E+00 0.000E+00 0.000E+00 0.000E+00
BIGSUB   4        0    9.11502E+00   167.200     0.000   114.600    71.867    76.534     0.585     9.671     0.151    92.630     0.171     0.355     0.044     0.001     0.000     0.034    82.688     0.127     0.000 .00000E+00 0.000E+00 0.000E+00 0.000E+00 0.000E+00 0.000E+00
BIGSUB   5        0    9.20828E-01   167.200     0.000   114.162    78.043   116.548     4.864     5.968     1.969    80.122     0.013     0.057     0.007     0.001     0.001     0.005    71.542     0.103     0.000 .00000E+00 0.000E+00 0.000E+00 0.000E+00 0.000E+00 0.000E+00
BIGSUB   6        0    9.35910E-02   167.200     0.000   114.078    77.480   150.322     6.444    10.737     2.689    78.513     0.006     0.045     0.006     0.002     0.002     0.004    64.211     0.127     0.000 .00000E+00 0.000E+00 0.000E+00 0.000E+00 0.000E+00 0.000E+00
BIGSUB   7        0    9.76644E-01   167.200     0.000   114.169    74.188    90.971     1.878    11.126     0.447    87.592     0.074     0.191     0.023     0.002     0.001     0.018    75.715     0.118     0.000 .00000E+00 0.000E+00 0.000E+00 0.000E+00 0.000E+00 0.000E+00
BIGSUB   1        0   10.74695E-01   159.000     0.000   159.824    79.269    77.976     0.300     2.888     0.272    73.536     0.032     0.067     0.008     0.001     0.000     0.006    70.250     0.075     0.000 .00000E+00 0.000E+00 0.000E+00 0.000E+00 0.000E+00 0.000E+00
BIGSUB   2        0   10.72232E-01   159.000     0.000   159.789    79.170    78.539     0.131     2.527     0.118    73.689     0.044     0.077     0.009     0.001     0.000     0.007    70.934     0.073     0.000 .00000E+00 0.000E+00 0.000E+00 0.000E+00 0.000E+00 0.000E+00
BIGSUB   3        0   10.12200E+00   159.000     0.000   159.850    79.727    85.728     0.167     2.023     0.148    73.048     0.057     0.085     0.010     0.001     0.000     0.008    70.756     0.076     0.000 .00000E+00 0.000E+00 0.000E+00 0.000E+00 0.000E+00 0.000E+00
BIGSUB   4        0   10.11502E+00   159.000     0.000   159.933    79.045    78.171     0.021     2.234     0.066    73.881     0.059     0.091     0.011     0.001     0.000     0.009    71.485     0.072     0.000 .00000E+00 0.000E+00 0.000E+00 0.000E+00 0.000E+00 0.000E+00
BIGSUB   5        0   10.20828E-01   159.000     0.000   159.554    80.054   125.657     1.064     2.294     1.017    65.847     0.004     0.015     0.002     0.001     0.000     0.001    62.007     0.133     0.000 .00000E+00 0.000E+00 0.000E+00 0.000E+00 0.000E+00 0.000E+00
BIGSUB   6        0   10.35910E-02   159.000     0.000   159.481    90.336   156.493     0.993     6.046     1.270    59.575     0.001     0.010     0.001     0.004     0.001     0.001    51.539     0.094     0.000 .00000E+00 0.000E+00 0.000E+00 0.000E+00 0.000E+00 0.000E+00
BIGSUB   7        0   10.76644E-01   159.000     0.000   159.560    80.216    95.383     0.184     4.476     0.169    70.257     0.027     0.058     0.007     0.003     0.000     0.005    65.366     0.083     0.000 .00000E+00 0.000E+00 0.000E+00 0.000E+00 0.000E+00 0.000E+00
BIGSUB   1        0   11.74695E-01   334.500     0.000   145.078    82.205    78.022     2.661    98.493     0.652   255.138     2.260     5.086     0.623     0.006     0.005     0.482   155.891     0.316     0.000 .00000E+00 0.000E+00 0.000E+00 0.000E+00 0.000E+00 0.000E+00
BIGSUB   2        0   11.72232E-01   334.500     0.000   145.060    82.204    78.207     2.435    96.351     0.460   255.556     3.174     5.859     0.717     0.005     0.004     0.557   158.657     0.320     0.000 .00000E+00 0.000E+00 0.000E+00 0.000E+00 0.000E+00 0.000E+00
BIGSUB   3        0   11.12200E+00   334.500     0.000   145.092    82.317    85.780     2.862    91.152     0.228   254.455     4.244     6.644     0.813     0.005     0.004     0.631   162.978     0.330     0.000 .00000E+00 0.000E+00 0.000E+00 0.000E+00 0.000E+00 0.000E+00
BIGSUB   4        0   11.11502E+00   334.500     0.000   145.136    82.153    77.770     2.121    94.805     0.393   255.934     4.323     6.785     0.831     0.005     0.003     0.646   160.660     0.322     0.000 .00000E+00 0.000E+00 0.000E+00 0.000E+00 0.000E+00 0.000E+00
BIGSUB   5        0   11.20828E-01   334.500     0.000   144.937    75.043   130.113    18.448    73.385     3.737   245.441     0.406     2.007     0.246     0.007     0.012     0.179   167.871     0.372     0.001 .00000E+00 0.000E+00 0.000E+00 0.000E+00 0.000E+00 0.000E+00
BIGSUB   6        0   11.35910E-02   334.500     0.000   144.899    89.123   146.928    28.725    93.994     4.850   235.769     0.228     1.976     0.242     0.007     0.018     0.172   136.311     0.316     0.001 .00000E+00 0.000E+00 0.000E+00 0.000E+00 0.000E+00 0.000E+00
BIGSUB   7        0   11.76644E-01   334.500     0.000   144.940    80.897    94.073     8.714    97.560     1.354   252.341     1.898     4.436     0.543     0.011     0.007     0.417   153.223     0.320     0.000 .00000E+00 0.000E+00 0.000E+00 0.000E+00 0.000E+00 0.000E+00
BIGSUB   1        0   12.74695E-01   398.800     0.000   134.225    87.898    94.847     5.059    81.545     1.368   287.349     4.756     7.126     0.872     0.004     0.004     0.676   204.336     0.309     0.000 .00000E+00 0.000E+00 0.000E+00 0.000E+00 0.000E+00 0.000E+00
BIGSUB   2        0   12.72232E-01   398.800     0.000   134.197    87.850    95.191     4.350    78.558     1.148   287.671     6.650     7.698     0.942     0.003     0.003     0.734   207.879     0.311     0.000 .00000E+00 0.000E+00 0.000E+00 0.000E+00 0.000E+00 0.000E+00
BIGSUB   3        0   12.12200E+00   398.800     0.000   134.245    88.209   102.137     5.680    71.953     0.624   285.962     8.820     8.117     0.993     0.004     0.002     0.774   213.288     0.333     0.000 .00000E+00 0.000E+00 0.000E+00 0.000E+00 0.000E+00 0.000E+00
BIGSUB   4        0   12.11502E+00   398.800     0.000   134.310    87.829    94.972     3.587    76.775     1.011   288.043     9.044     8.496     1.039     0.003     0.002     0.812   210.182     0.310     0.000 .00000E+00 0.000E+00 0.000E+00 0.000E+00 0.000E+00 0.000E+00
BIGSUB   5        0   12.20828E-01   398.800     0.000   134.013    89.109   147.027    29.235    52.449     9.002   269.608     0.733     2.699     0.331     0.018     0.012     0.241   207.667     0.607     0.002 .00000E+00 0.000E+00 0.000E+00 0.000E+00 0.000E+00 0.000E+00
BIGSUB   6        0   12.35910E-02   398.800     0.000   133.956    93.016   154.882    43.845    66.925    12.832   264.527     0.340     2.747     0.337     0.005     0.013     0.238   184.073     0.354     0.002 .00000E+00 0.000E+00 0.000E+00 0.000E+00 0.000E+00 0.000E+00
BIGSUB   7        0   12.76644E-01   398.800     0.000   134.018    89.151   108.637    13.763    78.971     3.787   282.225     3.905     5.831     0.713     0.026     0.007     0.550   199.242     0.371     0.001 .00000E+00 0.000E+00 0.000E+00 0.000E+00 0.000E+00 0.000E+00
BIGSUB   1        0 2016.74695E-01  3003.700     0.000  1726.107   836.289    94.847    36.549   736.848    21.533  2161.262     7.768    13.926     1.705     0.038     0.031     1.321  1400.652     1.253     0.002 .00000E+00 0.000E+00 0.000E+00 0.000E+00 0.000E+00 0.000E+00
BIGSUB   2        0 2016.72232E-01  3003.700     0.000  1726.077   834.347    95.191    31.962   719.434    18.763  2164.795    10.871    15.573     1.906     0.037     0.026     1.483  1424.637     1.264     0.002 .00000E+00 0.000E+00 0.000E+00 0.000E+00 0.000E+00 0.000E+00
BIGSUB   3        0 2016.12200E+00  3003.700     0.000  1726.130   840.761   102.137    36.674   675.462    23.861  2159.224    14.450    17.146     2.098     0.038     0.023     1.632  1457.644     1.456     0.002 .00000E+00 0.000E+00 0.000E+00 0.000E+00 0.000E+00 0.000E+00
BIGSUB   4        0 2016.11502E+00  3003.700     0.000  1726.201   832.834    94.972    27.652   708.437    15.564  2167.206    14.792    17.743     2.171     0.036     0.020     1.693  1441.496     1.268     0.002 .00000E+00 0.000E+00 0.000E+00 0.000E+00 0.000E+00 0.000E+00
BIGSUB   5        0 2016.20828E-01  3003.700     0.000  1725.872   911.264   147.027   166.481   542.081   151.037  2094.197     1.283     5.851     0.722     0.113     0.086     0.508  1391.251     5.014     0.014 .00000E+00 0.000E+00 0.000E+00 0.000E+00 0.000E+00 0.000E+00
BIGSUB   6        0 2016.35910E-02  3003.700     0.000  1725.808   915.621   154.882   233.352   641.417   215.838  2090.875     0.613     5.161     0.632     0.038     0.118     0.449  1219.978     1.277     0.020 .00000E+00 0.000E+00 0.000E+00 0.000E+00 0.000E+00 0.000E+00
BIGSUB   7        0 2016.76644E-01  3003.700     0.000  1725.877   859.601   108.637    78.201   718.413    63.112  2140.484     6.424    11.780     1.442     0.524     0.047     1.106  1354.338     2.050     0.006 .00000E+00 0.000E+00 0.000E+00 0.000E+00 0.000E+00 0.000E+00
BIGSUB   1        0  4.0.74695E-01  3445.525     0.000  1685.374   926.639    94.847    39.766   901.172    22.057  2501.485    24.785    39.765     4.868     0.039     0.043     3.845  1576.219     1.605     0.003 .00000E+00 0.000E+00 0.000E+00 0.000E+00 0.000E+00 0.000E+00
BIGSUB   2        0  4.0.72232E-01  3445.525     0.000  1685.406   924.550    95.191    34.712   880.121    19.066  2505.329    34.805    41.007     5.018     0.037     0.034     3.987  1604.363     1.620     0.003 .00000E+00 0.000E+00 0.000E+00 0.000E+00 0.000E+00 0.000E+00
BIGSUB   3        0  4.0.12200E+00  3445.524     0.000  1685.349   930.785   102.137    40.565   828.327    23.764  2498.203    46.400    40.522     4.958     0.049     0.029     3.950  1644.032     1.804     0.003 .00000E+00 0.000E+00 0.000E+00 0.000E+00 0.000E+00 0.000E+00
BIGSUB   4        0  4.0.11502E+00  3445.525     0.000  1685.274   922.911    94.972    29.853   867.289    15.649  2508.121    47.403    42.231     5.168     0.035     0.025     4.126  1623.651     1.627     0.002 .00000E+00 0.000E+00 0.000E+00 0.000E+00 0.000E+00 0.000E+00
BIGSUB   5        0  4.0.20828E-01  3445.525     0.000  1685.616  1001.846   147.027   192.839   668.199   153.295  2412.726     4.181    18.558     2.281     0.431     0.128     1.677  1581.395     5.113     0.021 .00000E+00 0.000E+00 0.000E+00 0.000E+00 0.000E+00 0.000E+00
BIGSUB   6        0  4.0.35910E-02  3445.525     0.000  1685.681  1006.656   154.882   270.097   784.203   220.554  2402.005     2.095    18.305     2.242     0.046     0.156     1.631  1383.540     1.607     0.030 .00000E+00 0.000E+00 0.000E+00 0.000E+00 0.000E+00 0.000E+00
BIGSUB   7        0  4.0.76644E-01  3445.525     0.000  1685.610   950.688   108.637    88.787   874.753    64.502  2473.412    20.620    34.065     4.167     0.625     0.066     3.259  1529.630     2.301     0.009 .00000E+00 0.000E+00 0.000E+00 0.000E+00 0.000E+00 0.000E+00
