1
    SWAT Dec 23 2016    VER 2016/Rev 664                                                                 0/ 0/   0      0: 0: 0

    General Input/Output section (file.cio):                                        
    2/11/2020 17:04:58 QSWAT Workflow v1.5.2                                        
                                                                                    
         Number of years in run:   12
         Area of watershed:        0.485 km2
1
    SWAT Dec 23 2016    VER 2016/Rev 664                                            

    General Input/Output section (file.cio):                                        
    2/11/2020 17:04:58 QSWAT Workflow v1.5.2                                        
                                                                                    
Annual Summary for Watershed in year    1 of simulation

UNIT                                    PERCO    TILE                           WATER     SED     NO3     NO3     NO3     NO3        N       P       P
TIME     PREC    SURQ    LATQ     GWQ    LATE       Q     SW       ET     PET   YIELD   YIELD    SURQ    LATQ    PERC    CROP  ORGANIC SOLUBLE ORGANIC TILENO3
         (mm)    (mm)    (mm)    (mm)    (mm)    (mm)    (mm)    (mm)    (mm)    (mm)   (t/ha)  ------------------(kg nutrient/ha)-------------------- (kg/ha)
1
    SWAT Dec 23 2016    VER 2016/Rev 664                                            

    General Input/Output section (file.cio):                                        
    2/11/2020 17:04:58 QSWAT Workflow v1.5.2                                        
                                                                                    
Annual Summary for Watershed in year    2 of simulation

UNIT                                    PERCO    TILE                           WATER     SED     NO3     NO3     NO3     NO3        N       P       P
TIME     PREC    SURQ    LATQ     GWQ    LATE       Q     SW       ET     PET   YIELD   YIELD    SURQ    LATQ    PERC    CROP  ORGANIC SOLUBLE ORGANIC TILENO3
         (mm)    (mm)    (mm)    (mm)    (mm)    (mm)    (mm)    (mm)    (mm)    (mm)   (t/ha)  ------------------(kg nutrient/ha)-------------------- (kg/ha)
1
    SWAT Dec 23 2016    VER 2016/Rev 664                                            

    General Input/Output section (file.cio):                                        
    2/11/2020 17:04:58 QSWAT Workflow v1.5.2                                        
                                                                                    
Annual Summary for Watershed in year    3 of simulation

UNIT                                    PERCO    TILE                           WATER     SED     NO3     NO3     NO3     NO3        N       P       P
TIME     PREC    SURQ    LATQ     GWQ    LATE       Q     SW       ET     PET   YIELD   YIELD    SURQ    LATQ    PERC    CROP  ORGANIC SOLUBLE ORGANIC TILENO3
         (mm)    (mm)    (mm)    (mm)    (mm)    (mm)    (mm)    (mm)    (mm)    (mm)   (t/ha)  ------------------(kg nutrient/ha)-------------------- (kg/ha)
1
    SWAT Dec 23 2016    VER 2016/Rev 664                                            

    General Input/Output section (file.cio):                                        
    2/11/2020 17:04:58 QSWAT Workflow v1.5.2                                        
                                                                                    
Annual Summary for Watershed in year    4 of simulation

UNIT                                    PERCO    TILE                           WATER     SED     NO3     NO3     NO3     NO3        N       P       P
TIME     PREC    SURQ    LATQ     GWQ    LATE       Q     SW       ET     PET   YIELD   YIELD    SURQ    LATQ    PERC    CROP  ORGANIC SOLUBLE ORGANIC TILENO3
         (mm)    (mm)    (mm)    (mm)    (mm)    (mm)    (mm)    (mm)    (mm)    (mm)   (t/ha)  ------------------(kg nutrient/ha)-------------------- (kg/ha)
1
    SWAT Dec 23 2016    VER 2016/Rev 664                                            

    General Input/Output section (file.cio):                                        
    2/11/2020 17:04:58 QSWAT Workflow v1.5.2                                        
                                                                                    
Annual Summary for Watershed in year    5 of simulation

UNIT                                    PERCO    TILE                           WATER     SED     NO3     NO3     NO3     NO3        N       P       P
TIME     PREC    SURQ    LATQ     GWQ    LATE       Q     SW       ET     PET   YIELD   YIELD    SURQ    LATQ    PERC    CROP  ORGANIC SOLUBLE ORGANIC TILENO3
         (mm)    (mm)    (mm)    (mm)    (mm)    (mm)    (mm)    (mm)    (mm)    (mm)   (t/ha)  ------------------(kg nutrient/ha)-------------------- (kg/ha)
1
    SWAT Dec 23 2016    VER 2016/Rev 664                                            

    General Input/Output section (file.cio):                                        
    2/11/2020 17:04:58 QSWAT Workflow v1.5.2                                        
                                                                                    
Annual Summary for Watershed in year    6 of simulation

UNIT                                    PERCO    TILE                           WATER     SED     NO3     NO3     NO3     NO3        N       P       P
TIME     PREC    SURQ    LATQ     GWQ    LATE       Q     SW       ET     PET   YIELD   YIELD    SURQ    LATQ    PERC    CROP  ORGANIC SOLUBLE ORGANIC TILENO3
         (mm)    (mm)    (mm)    (mm)    (mm)    (mm)    (mm)    (mm)    (mm)    (mm)   (t/ha)  ------------------(kg nutrient/ha)-------------------- (kg/ha)
1
    SWAT Dec 23 2016    VER 2016/Rev 664                                            

    General Input/Output section (file.cio):                                        
    2/11/2020 17:04:58 QSWAT Workflow v1.5.2                                        
                                                                                    
Annual Summary for Watershed in year    7 of simulation

UNIT                                    PERCO    TILE                           WATER     SED     NO3     NO3     NO3     NO3        N       P       P
TIME     PREC    SURQ    LATQ     GWQ    LATE       Q     SW       ET     PET   YIELD   YIELD    SURQ    LATQ    PERC    CROP  ORGANIC SOLUBLE ORGANIC TILENO3
         (mm)    (mm)    (mm)    (mm)    (mm)    (mm)    (mm)    (mm)    (mm)    (mm)   (t/ha)  ------------------(kg nutrient/ha)-------------------- (kg/ha)
1
    SWAT Dec 23 2016    VER 2016/Rev 664                                            

    General Input/Output section (file.cio):                                        
    2/11/2020 17:04:58 QSWAT Workflow v1.5.2                                        
                                                                                    
Annual Summary for Watershed in year    8 of simulation

UNIT                                    PERCO    TILE                           WATER     SED     NO3     NO3     NO3     NO3        N       P       P
TIME     PREC    SURQ    LATQ     GWQ    LATE       Q     SW       ET     PET   YIELD   YIELD    SURQ    LATQ    PERC    CROP  ORGANIC SOLUBLE ORGANIC TILENO3
         (mm)    (mm)    (mm)    (mm)    (mm)    (mm)    (mm)    (mm)    (mm)    (mm)   (t/ha)  ------------------(kg nutrient/ha)-------------------- (kg/ha)
1
    SWAT Dec 23 2016    VER 2016/Rev 664                                            

    General Input/Output section (file.cio):                                        
    2/11/2020 17:04:58 QSWAT Workflow v1.5.2                                        
                                                                                    
Annual Summary for Watershed in year    9 of simulation

UNIT                                    PERCO    TILE                           WATER     SED     NO3     NO3     NO3     NO3        N       P       P
TIME     PREC    SURQ    LATQ     GWQ    LATE       Q     SW       ET     PET   YIELD   YIELD    SURQ    LATQ    PERC    CROP  ORGANIC SOLUBLE ORGANIC TILENO3
         (mm)    (mm)    (mm)    (mm)    (mm)    (mm)    (mm)    (mm)    (mm)    (mm)   (t/ha)  ------------------(kg nutrient/ha)-------------------- (kg/ha)
    1  576.60  152.30  299.98    5.51   17.19    0.00  107.48   87.55  117.36  458.05   16.58    0.01    0.44    0.37    0.00    25.61    0.01    3.13    0.00
    2  144.70   39.97   89.52    6.61    5.27    0.00   58.95   68.48  106.82  136.41    8.39    0.00    0.12    0.12    6.75     6.23    0.00    0.76    0.00
    3   93.80    0.18   38.16    4.88    0.00    0.00   30.08   84.32  115.41   43.58    0.00    0.01    0.07    0.00    3.10     0.00    0.00    0.00    0.00
    4  238.90   28.28  106.47    0.82    0.05    0.00   57.45   61.73  112.39  135.86    0.02    0.00    0.03    0.00    0.39     0.03    0.00    0.00    0.00
    5  134.70    1.72   75.52    0.10    0.04    0.00   53.39   75.72  133.60   77.59    0.00    0.00    0.05    0.00    0.03     0.00    0.00    0.00    0.00
    6  299.10   94.36  127.06    0.11    0.61    0.00   70.50   60.04   88.51  221.69    0.21    0.00    0.19    0.01    0.01     0.25    0.01    0.03    0.00
    7  248.80   12.82  149.29    0.58    3.31    0.00   80.47   73.66  102.98  162.83    0.04    0.02    0.20    0.04    0.41     0.05    0.00    0.01    0.00
    8  467.80  148.57  223.55    2.47    8.00    0.00   95.71   72.22  112.59  374.74    1.37    0.01    0.21    0.11    0.09     1.71    0.01    0.21    0.00
    9  166.70   17.30   75.86    4.08    1.26    0.00   86.01   82.26  150.36   97.42    0.40    0.00    0.05    0.02    0.05     0.37    0.00    0.05    0.00
   10  234.50   49.21   94.71    2.76    1.35    0.00   93.63   75.21  163.55  146.85    1.98    0.01    0.10    0.03    0.02     1.60    0.00    0.20    0.00
   11  180.90   25.05   81.95    0.88    0.97    0.00   92.80   74.46  149.94  108.02    1.85    0.00    0.10    0.02    0.00     1.24    0.00    0.15    0.00
   12  309.80   46.62  156.48    1.64    4.30    0.00   97.89   95.55  145.84  204.87    6.43    0.01    0.23    0.11    0.00     3.55    0.00    0.44    0.00

 2013 3096.30  616.39 1518.53   30.43   42.35    0.00   97.89  911.20 1499.35 2167.91   37.27    0.07    1.80    0.83   10.86    40.63    0.03    4.97    0.00
1
    SWAT Dec 23 2016    VER 2016/Rev 664                                            

    General Input/Output section (file.cio):                                        
    2/11/2020 17:04:58 QSWAT Workflow v1.5.2                                        
                                                                                    
Annual Summary for Watershed in year   10 of simulation

UNIT                                    PERCO    TILE                           WATER     SED     NO3     NO3     NO3     NO3        N       P       P
TIME     PREC    SURQ    LATQ     GWQ    LATE       Q     SW       ET     PET   YIELD   YIELD    SURQ    LATQ    PERC    CROP  ORGANIC SOLUBLE ORGANIC TILENO3
         (mm)    (mm)    (mm)    (mm)    (mm)    (mm)    (mm)    (mm)    (mm)    (mm)   (t/ha)  ------------------(kg nutrient/ha)-------------------- (kg/ha)
    1  549.60  163.79  280.94    4.57   14.07    0.00   99.24   96.15  142.81  449.49   13.77    0.01    0.40    0.30    0.00    27.43    0.01    3.35    0.00
    2  351.60   69.25  172.45    4.67    6.12    0.00  100.99   99.32  144.18  246.59    0.50    0.16    0.33    0.03    7.94     0.74    0.00    0.09    0.00
    3  222.80   36.54   94.30    5.00    1.44    0.00   64.99  130.30  167.22  136.10    0.02    0.03    0.05    0.00    3.17     0.04    0.00    0.00    0.00
    4  466.60   63.76  233.25    2.72    5.57    0.00  102.03  116.64  131.83  299.97    0.03    0.00    0.05    0.01    0.45     0.04    0.00    0.01    0.00
    5  221.20   37.70  112.74    3.40    2.19    0.00  100.30   79.69  141.42  154.07    0.03    0.00    0.13    0.01    0.03     0.04    0.00    0.01    0.00
    6  204.50   29.73   98.37    3.19    2.42    0.00   93.37   81.88  138.23  131.51    0.03    0.00    0.11    0.02    0.01     0.04    0.00    0.00    0.00
    7  729.10  435.87  184.86    2.62   10.45    0.00  107.05   65.15  111.61  623.53    1.60    0.02    0.28    0.10    0.32     2.12    0.02    0.26    0.00
    8  116.20    3.62   73.77    4.19    1.65    0.00   88.63   74.13  134.72   81.87    0.02    0.00    0.07    0.01    0.10     0.02    0.00    0.00    0.00
    9  109.60    8.25   47.17    1.87    0.05    0.00   86.04   57.19  137.70   57.51    0.16    0.00    0.06    0.00    0.07     0.18    0.00    0.02    0.00
   10   90.50    8.47   39.39    0.22    0.10    0.00   76.49   51.88  176.59   48.27    0.23    0.00    0.05    0.00    0.06     0.26    0.00    0.03    0.00
   11  332.20   47.82  176.48    0.59    4.15    0.00   94.46   85.42  134.78  225.04    2.48    0.00    0.31    0.10    0.00     2.36    0.00    0.29    0.00
   12  450.40  127.31  208.96    2.48    8.14    0.00  103.13   96.61  147.42  338.91    5.49    0.01    0.29    0.19    0.00     6.17    0.01    0.76    0.00

 2014 3844.30 1032.10 1722.69   35.53   56.36    0.00  103.13 1034.36 1708.51 2792.85   24.35    0.25    2.10    0.78   12.15    39.44    0.05    4.83    0.00
1
    SWAT Dec 23 2016    VER 2016/Rev 664                                            

    General Input/Output section (file.cio):                                        
    2/11/2020 17:04:58 QSWAT Workflow v1.5.2                                        
                                                                                    
Annual Summary for Watershed in year   11 of simulation

UNIT                                    PERCO    TILE                           WATER     SED     NO3     NO3     NO3     NO3        N       P       P
TIME     PREC    SURQ    LATQ     GWQ    LATE       Q     SW       ET     PET   YIELD   YIELD    SURQ    LATQ    PERC    CROP  ORGANIC SOLUBLE ORGANIC TILENO3
         (mm)    (mm)    (mm)    (mm)    (mm)    (mm)    (mm)    (mm)    (mm)    (mm)   (t/ha)  ------------------(kg nutrient/ha)-------------------- (kg/ha)
    1  682.50  226.84  325.11    5.44   19.52    0.00  104.78  101.15  139.09  557.62   25.66    0.01    0.45    0.42    0.00    35.83    0.02    4.38    0.00
    2  310.40   64.53  157.84    7.29    5.56    0.00   86.83  109.92  148.64  229.96    8.22    0.11    0.32    0.09    7.94     5.13    0.00    0.63    0.00
    3  174.40    6.04   73.93    6.33    0.05    0.00   81.75   99.15  136.36   86.66    0.00    0.00    0.02    0.00    2.52     0.00    0.00    0.00    0.00
    4  364.50  104.36  149.64    2.38    2.99    0.00   90.13   99.38  144.79  256.68    0.09    0.00    0.03    0.00    0.38     0.10    0.00    0.01    0.00
    5  421.40   97.91  212.39    3.17    8.45    0.00  102.83   89.47  126.07  313.76    0.09    0.01    0.18    0.03    0.03     0.10    0.00    0.01    0.00
    6  230.40   44.97  113.57    4.05    3.86    0.00   99.07   71.08  162.48  162.87    0.06    0.01    0.13    0.03    0.01     0.07    0.00    0.01    0.00
    7  101.30    2.87   45.92    2.92    0.64    0.00   80.78   71.39  169.86   51.99    0.00    0.00    0.04    0.01    0.33     0.00    0.00    0.00    0.00
    8  171.70   36.79   79.83    1.08    1.44    0.00   75.20   59.25  171.94  117.94    0.17    0.00    0.13    0.02    0.09     0.21    0.00    0.03    0.00
    9   30.50    0.00    9.16    0.46    0.00    0.00   66.36   30.17  151.13    9.81    0.00    0.00    0.02    0.00    0.07     0.00    0.00    0.00    0.00
   10  211.10   27.02  108.01    0.34    1.52    0.00   76.02   64.50  148.17  135.52    0.48    0.00    0.20    0.03    0.00     0.54    0.00    0.07    0.00
   11  541.90  191.87  241.82    0.61    9.49    0.00  101.24   71.30  148.96  434.41   10.77    0.00    0.39    0.22    0.00     9.22    0.01    1.14    0.00
   12  597.70  274.76  222.95    3.45   11.91    0.00  105.40   80.30  160.16  501.31   23.26    0.01    0.29    0.25    0.00     8.61    0.01    1.06    0.00

 2015 3837.80 1077.96 1740.18   37.52   65.44    0.00  105.40  947.08 1807.65 2858.53   68.81    0.16    2.20    1.10   11.37    59.81    0.05    7.32    0.00
1
    SWAT Dec 23 2016    VER 2016/Rev 664                                            

    General Input/Output section (file.cio):                                        
    2/11/2020 17:04:58 QSWAT Workflow v1.5.2                                        
                                                                                    
Annual Summary for Watershed in year   12 of simulation

UNIT                                    PERCO    TILE                           WATER     SED     NO3     NO3     NO3     NO3        N       P       P
TIME     PREC    SURQ    LATQ     GWQ    LATE       Q     SW       ET     PET   YIELD   YIELD    SURQ    LATQ    PERC    CROP  ORGANIC SOLUBLE ORGANIC TILENO3
         (mm)    (mm)    (mm)    (mm)    (mm)    (mm)    (mm)    (mm)    (mm)    (mm)   (t/ha)  ------------------(kg nutrient/ha)-------------------- (kg/ha)
    1  122.10    5.19   62.10    5.93    1.35    0.00   80.70   84.39  179.12   73.47    0.58    0.00    0.04    0.03    0.00     0.72    0.00    0.09    0.00
    2  182.20    6.43   89.29    3.70    0.13    0.00   75.38   91.36  176.46   99.65    0.01    0.06    0.27    0.00    8.59     0.01    0.00    0.00    0.00
    3  302.60   43.06  138.82    1.21    2.09    0.00   91.14  101.40  136.35  183.31    0.02    0.01    0.03    0.00    2.83     0.04    0.00    0.01    0.00
    4  986.50  415.30  430.53    3.83   27.88    0.00  107.90   80.45   98.98  849.87    0.17    0.01    0.11    0.03    0.32     0.56    0.02    0.07    0.00
    5   55.90   13.25   53.38    8.68    2.73    0.00   78.64   33.16  132.56   75.70    0.00    0.00    0.03    0.01    0.02     0.03    0.00    0.00    0.00
    6    2.60    0.00    0.45    5.67    0.00    0.00   68.93   11.84  133.43    6.50    0.00    0.00    0.01    0.00    0.01     0.00    0.00    0.00    0.00
    7  132.20   25.48   55.08    1.64    0.04    0.00   80.82   39.73  126.34   82.52    0.07    0.01    0.14    0.00    0.34     0.23    0.00    0.03    0.00
    8  160.10    8.98   72.73    0.06    0.20    0.00   79.09   79.20  189.33   82.03    0.05    0.00    0.10    0.00    0.09     0.10    0.00    0.01    0.00
    9  167.20    9.70   80.45    0.36    0.95    0.00   82.96   72.69  114.44   90.71    0.13    0.00    0.12    0.02    0.04     0.28    0.00    0.03    0.00
   10  159.00    2.71   69.51    0.19    0.19    0.00   85.44   79.58  159.80   72.57    0.04    0.00    0.08    0.00    0.01     0.07    0.00    0.01    0.00
   11  334.50   94.19  159.16    0.73    4.38    0.00   85.22   81.76  145.06  254.22    3.23    0.01    0.32    0.12    0.00     5.74    0.01    0.70    0.00
   12  398.80   75.79  207.69    1.86    7.46    0.00  101.63   88.24  134.20  285.47    6.74    0.01    0.34    0.20    0.00     7.36    0.00    0.90    0.00

 2016 3003.70  700.08 1419.19   33.86   47.41    0.00  101.63  843.80 1726.08 2156.00   11.03    0.12    1.60    0.41   12.25    15.14    0.03    1.85    0.00
1
    SWAT Dec 23 2016    VER 2016/Rev 664                                            

    General Input/Output section (file.cio):                                        
    2/11/2020 17:04:58 QSWAT Workflow v1.5.2                                        
                                                                                    
    FINAL VALUES

1
    SWAT Dec 23 2016    VER 2016/Rev 664                                            

    General Input/Output section (file.cio):                                        
    2/11/2020 17:04:58 QSWAT Workflow v1.5.2                                        
                                                                                    
                                            Average Plant Values (kg/ha)

  HRU       1 SUB   1 FRSE  Yld =  5571.5 BIOM =   7959.4
  HRU       2 SUB   1 FRSE  Yld =  5216.0 BIOM =   7451.5
  HRU       3 SUB   1 FRSD  Yld =  4531.6 BIOM =   9458.6
  HRU       4 SUB   1 FRSD  Yld =  4011.4 BIOM =   8288.5
  HRU       5 SUB   1 FRSD  Yld =  5331.5 BIOM =  11089.0
  HRU       6 SUB   1 FRSD  Yld =  3878.4 BIOM =   7992.2
  HRU       7 SUB   1 FRSD  Yld =  5283.6 BIOM =  10983.4
  HRU       8 SUB   1 FRSD  Yld =  3879.8 BIOM =   7995.5
  HRU       9 SUB   2 FRSE  Yld =  5647.5 BIOM =   8067.8
  HRU      10 SUB   2 FRSE  Yld =  5209.8 BIOM =   7442.6
  HRU      11 SUB   2 FRSD  Yld =  5035.6 BIOM =  10486.0
  HRU      12 SUB   2 FRSD  Yld =  3788.7 BIOM =   7799.6
  HRU      13 SUB   2 FRSD  Yld =  5333.8 BIOM =  11094.5
  HRU      14 SUB   2 FRSD  Yld =  3663.4 BIOM =   7543.1
  HRU      15 SUB   2 FRSD  Yld =  5322.7 BIOM =  11069.0
  HRU      16 SUB   2 FRSD  Yld =  3719.0 BIOM =   7655.1
  HRU      17 SUB   3 SWCH  Yld = 25039.1 BIOM =  43099.1
  HRU      18 SUB   3 FRSE  Yld =  3998.1 BIOM =   5711.5
  HRU      19 SUB   3 FRSE  Yld =  4005.7 BIOM =   5722.5
  HRU      20 SUB   3 FRSE  Yld =  5894.6 BIOM =   8420.8
  HRU      21 SUB   3 FRSE  Yld =  5205.0 BIOM =   7435.7
  HRU      22 SUB   3 FRSD  Yld =  5029.3 BIOM =  10473.0
  HRU      23 SUB   4 FRSE  Yld =  5750.6 BIOM =   8215.1
  HRU      24 SUB   4 FRSE  Yld =  5205.8 BIOM =   7436.8
  HRU      25 SUB   4 FRSE  Yld =  5142.7 BIOM =   7346.7
  HRU      26 SUB   5 SWCH  Yld = 24907.8 BIOM =  42892.0
  HRU      27 SUB   5 SWCH  Yld = 21723.4 BIOM =  37902.1
  HRU      28 SUB   5 FRSE  Yld =  5676.3 BIOM =   8108.9
  HRU      29 SUB   5 FRSE  Yld =  5216.9 BIOM =   7452.8
  HRU      30 SUB   5 FRSD  Yld =  5327.9 BIOM =  11094.8
  HRU      31 SUB   5 FRSD  Yld =  4110.5 BIOM =   8503.0
  HRU      32 SUB   5 FRSD  Yld =  5258.2 BIOM =  10929.7
  HRU      33 SUB   5 FRSD  Yld =  4965.7 BIOM =  10312.1
  HRU      34 SUB   6 FRSE  Yld =  5680.5 BIOM =   8115.1
  HRU      35 SUB   6 FRSD  Yld =  3824.8 BIOM =   7874.7
  HRU      36 SUB   6 FRSD  Yld =  5252.1 BIOM =  10916.9
  HRU      37 SUB   6 FRSD  Yld =  3851.9 BIOM =   7932.4
  HRU      38 SUB   6 FRSD  Yld =  5262.8 BIOM =  10939.2
  HRU      39 SUB   7 SWCH  Yld = 25460.9 BIOM =  43853.5
  HRU      40 SUB   7 SWCH  Yld = 23182.2 BIOM =  40222.6
  HRU      41 SUB   7 SWCH  Yld = 25301.9 BIOM =  43535.2
  HRU      42 SUB   7 SWCH  Yld = 16404.3 BIOM =  29113.5
  HRU      43 SUB   7 SWCH  Yld = 22702.7 BIOM =  39459.2
  HRU      44 SUB   7 FRSD  Yld =    40.2 BIOM =     83.1
  HRU      45 SUB   7 FRSD  Yld =  4077.6 BIOM =   8429.2
  HRU      46 SUB   7 FRSE  Yld =  5746.4 BIOM =   8209.1
  HRU      47 SUB   7 FRSE  Yld =  5213.2 BIOM =   7447.5
  HRU      48 SUB   7 FRSE  Yld =    46.0 BIOM =     65.8
  HRU      49 SUB   7 FRSE  Yld =  5937.2 BIOM =   8481.8
  HRU      50 SUB   7 FRSE  Yld =    46.0 BIOM =     65.8

    HRU STATISTICS

                AVE ANNUAL VALUES

   HRU  SUB  SOIL       AREAkm2    CN     AWCmm   USLE_LS  IRRmm  AUTONkh AUTOPkh  MIXEF PRECmm SURQGENmm   GWQmm    ETmm   SEDth  NO3kgh  ORGNkgh BIOMth   YLDth  SURQmm
      1   1   AUA        .380E-02   55.00  165.80    3.67    0.00    0.00    0.00    0.20 3445.52  501.27 1879.17 1007.18    2.36    1.72   20.38    7.96    5.57  501.27
      2   1   FAGASA     .647E-01   70.00   97.20   10.33    0.00    0.00    0.00    0.20 3445.52  893.68 1619.14  917.20   28.13    1.66   42.20    7.45    5.22  893.68
      3   1   AUA        .513E-03   66.00  165.80    3.99    0.00    0.00    0.00    0.20 3445.52  865.62 1474.67 1037.55    0.99    1.11   11.61    9.71    6.80  865.62
      4   1   FAGASA     .174E-02   77.00   97.20    5.78    0.00    0.00    0.00    0.20 3445.52 1232.77 1224.89  957.44    4.44    1.48   31.29    8.60    6.02 1232.77
      5   1   AUA        .103E-03   77.00  165.80    4.14    0.00    0.00    0.00    0.20 3445.52 1334.94 1055.65 1014.23    0.91    1.46   10.66   11.42    8.00 1334.94
      6   1   FAGASA     .144E-02   77.00   97.20    4.43    0.00    0.00    0.00    0.20 3445.52 1258.67 1183.12  969.00    3.58    1.50   28.17    8.31    5.82 1258.67
      7   1   AUA        .513E-03   77.00  165.80    3.37    0.00    0.00    0.00    0.20 3445.52 1340.25 1042.95 1018.70    0.98    1.40   11.33   11.32    7.93 1340.25
      8   1   FAGASA     .185E-02   77.00   97.20    4.45    0.00    0.00    0.00    0.20 3445.52 1258.26 1183.74  968.80    3.70    1.50   28.69    8.31    5.82 1258.26
      9   2   AUA        .410E-02   55.00  165.80    4.14    0.00    0.00    0.00    0.20 3445.52  500.05 1885.14 1004.83    2.64    1.76   21.56    8.07    5.65  500.06
     10   2   FAGASA     .660E-01   70.00   97.20   13.85    0.00    0.00    0.00    0.20 3445.52  893.68 1620.34  917.20   37.88    1.66   42.98    7.44    5.21  893.68
     11   2   AUA        .513E-03   66.00  165.80    4.14    0.00    0.00    0.00    0.20 3445.52  852.51 1523.18 1021.50    0.82    1.55    9.86   10.79    7.55  852.51
     12   2   FAGASA     .308E-03   77.00   97.20    3.77    0.00    0.00    0.00    0.20 3445.52 1270.36 1164.66  974.60    2.62    1.51   23.65    8.12    5.68 1270.36
     13   2   AUA        .308E-03   77.00  165.80    4.23    0.00    0.00    0.00    0.20 3445.52 1334.33 1057.10 1013.74    1.12    1.46   12.45   11.43    8.00 1334.33
     14   2   FAGASA     .205E-03   77.00   97.20    3.11    0.00    0.00    0.00    0.20 3445.52 1280.97 1146.22  979.86    2.18    1.50   21.11    7.85    5.50 1280.97
     15   2   AUA        .205E-03   77.00  165.80    3.99    0.00    0.00    0.00    0.20 3445.52 1336.04 1053.10 1015.09    0.99    1.45   11.35   11.41    7.98 1336.04
     16   2   FAGASA     .616E-03   77.00   97.20    3.42    0.00    0.00    0.00    0.20 3445.52 1276.15 1154.67  977.47    2.69    1.50   24.06    7.97    5.58 1276.15
     17   3   AUA        .144E-02   59.00  165.80    7.94    0.00  146.31    0.00    0.20 3445.52  533.52 1828.73 1047.33    0.19   15.22    2.79   38.50   25.04  533.52
     18   3   AUA        .205E-03   55.00  165.80    0.07    0.00    0.00    0.00    0.20 3445.52  515.71 1755.62 1036.94    0.01    0.01    0.17    5.71    4.00  515.04
     19   3   AUA        .103E-03   55.00  165.80    0.38    0.00    0.00    0.00    0.20 3445.52  515.32 1757.54 1036.71    0.17    0.04    2.64    5.72    4.01  515.31
     20   3   AUA        .181E-01   55.00  165.80    7.91    0.00    0.00    0.00    0.20 3445.52  490.13 1921.59  989.30    5.66    1.97   28.48    8.42    5.89  490.13
     21   3   FAGASA     .101E+00   70.00   97.20   19.08    0.00    0.00    0.00    0.20 3445.52  893.67 1621.61  917.23   55.04    1.65   43.70    7.44    5.20  893.67
     22   3   AUA        .123E-02   66.00  165.80    4.10    0.00    0.00    0.00    0.20 3445.52  852.67 1522.56 1021.77    0.92    1.55   10.75   10.78    7.54  852.67
     23   4   AUA        .770E-02   55.00  165.80    5.08    0.00    0.00    0.00    0.20 3445.52  497.55 1895.82 1000.52    3.41    1.83   24.10    8.22    5.75  497.55
     24   4   FAGASA     .107E+00   70.00   97.20   17.43    0.00    0.00    0.00    0.20 3445.52  893.67 1621.21  917.24   50.60    1.65   43.55    7.44    5.21  893.67
     25   4   AUA        .103E-03   70.00  165.80    2.85    0.00    0.00    0.00    0.20 3445.52 1033.19 1307.40 1026.29    2.83    0.86   23.40    7.35    5.14 1033.19
     26   5   AUA        .462E-02   59.00  165.80    9.15    0.00  146.53    0.00    0.20 3445.52  517.07 1851.75 1043.42    0.25   15.52    3.57   38.30   24.91  517.07
     27   5   FAGASA     .103E-02   72.00   97.20    9.20    0.00  146.89    0.00    0.20 3445.52  769.66 1714.71  954.11    0.44   17.87    5.79   33.54   21.72  769.66
     28   5   AUA        .934E-02   55.00  165.80    4.36    0.00    0.00    0.00    0.20 3445.52  499.50 1887.88 1003.69    3.05    1.78   23.07    8.11    5.68  499.50
     29   5   FAGASA     .205E-02   70.00   97.20   13.54    0.00    0.00    0.00    0.20 3445.52  893.70 1620.30  917.14   24.42    1.67   41.71    7.45    5.22  893.70
     30   5   AUA        .154E-02   66.00  165.80    9.39    0.00    0.00    0.00    0.20 3445.52  825.71 1585.45  998.52    1.90    1.67   17.64   11.42    7.99  825.71
     31   5   FAGASA     .410E-03   77.00   97.20    7.99    0.00    0.00    0.00    0.20 3445.52 1177.73 1318.84  938.58    4.78    1.45   32.08    8.81    6.17 1177.73
     32   5   AUA        .113E-02   77.00  165.80    3.07    0.00    0.00    0.00    0.20 3445.52 1342.43 1037.96 1020.39    1.00    1.37   11.56   11.27    7.89 1342.43
     33   5   AUA        .718E-03   77.00  165.80    3.55    0.00    0.00    0.00    0.20 3445.52 1355.41  998.28 1034.95    1.23    1.02   13.58   10.64    7.45 1355.41
     34   6   AUA        .236E-02   55.00  165.80    4.39    0.00    0.00    0.00    0.20 3445.52  499.45 1888.17 1003.56    2.60    1.79   21.34    8.12    5.68  499.45
     35   6   FAGASA     .103E-03   77.00   97.20    3.94    0.00    0.00    0.00    0.20 3445.52 1267.44 1169.59  973.02    2.30    1.52   21.79    8.20    5.74 1267.44
     36   6   AUA        .718E-03   77.00  165.80    2.99    0.00    0.00    0.00    0.20 3445.52 1343.01 1036.62 1020.84    0.92    1.37   10.83   11.25    7.88 1343.01
     37   6   FAGASA     .103E-03   77.00   97.20    4.12    0.00    0.00    0.00    0.20 3445.52 1264.34 1174.51  971.57    2.38    1.52   22.20    8.25    5.78 1264.34
     38   6   AUA        .308E-03   77.00  165.80    3.09    0.00    0.00    0.00    0.20 3445.52 1342.31 1038.30 1020.21    0.84    1.38   10.03   11.28    7.89 1342.31
     39   7   AUA        .308E-03   59.00  165.80    2.94    0.00  139.31    0.00    0.20 3445.52  603.13 1693.84 1065.89    0.05    8.60    0.67   39.13   25.46  603.13
     40   7   FAGASA     .205E-03   72.00   97.20    5.22    0.00  150.83    0.00    0.20 3445.52  917.17 1502.97  989.56    0.19   17.31    2.68   35.71   23.18  917.17
     41   7   AUA        .318E-02   72.00  165.80    3.60    0.00  138.10    0.00    0.20 3445.52 1039.62 1305.31 1055.87    0.19   13.02    2.83   38.89   25.30 1039.62
     42   7   URBAN LA   .123E-02   72.00    1.50    1.82    0.00  208.98   13.96    0.20 3445.52 2416.49    0.01 1008.72    0.00   24.47    0.00   25.33   16.40 2416.49
     43   7   FAGASA     .164E-02   72.00   97.20    6.95    0.00  150.18    0.00    0.20 3445.52  857.65 1587.79  977.15    0.39   18.06    5.21   34.99   22.70  857.65
     44   7   URBAN LA   .410E-03   83.00    1.50    2.31    0.00    0.00    0.00    0.20 3445.52 2381.46    0.00 1055.49    0.00    0.02    0.00    0.09    0.06 2381.46
     45   7   FAGASA     .513E-03   77.00   97.20    6.77    0.00    0.00    0.00    0.20 3445.52 1210.92 1265.89  949.37    4.31    1.47   30.77    8.74    6.12 1210.92
     46   7   AUA        .169E-01   55.00  165.80    5.06    0.00    0.00    0.00    0.20 3445.52  497.67 1895.57 1000.53    3.73    1.82   24.99    8.21    5.75  497.67
     47   7   FAGASA     .487E-01   70.00   97.20   11.66    0.00    0.00    0.00    0.20 3445.52  893.69 1619.80  917.15   30.75    1.66   42.46    7.45    5.21  893.69
     48   7   URBAN LA   .103E-03   77.00    1.50    2.75    0.00    0.00    0.00    0.20 3445.52 2326.16    0.01 1106.51    0.00    0.01    0.00    0.07    0.05 2326.16
     49   7   AUA        .277E-02   77.00  165.80    3.25    0.00    0.00    0.00    0.20 3445.52 1346.88 1050.20 1002.46    5.50    1.58   30.39    8.48    5.94 1346.88
     50   7   URBAN LA   .616E-03   77.00    1.50    2.36    0.00    0.00    0.00    0.20 3445.52 2326.16    0.01 1106.52    0.00    0.01    0.00    0.07    0.05 2326.16



                AVE MONTHLY BASIN VALUES
                   SNOW                      WATER               SED
  MON     RAIN     FALL   SURF Q    LAT Q    YIELD       ET    YIELD      PET
          (MM)     (MM)     (MM)     (MM)     (MM)     (MM)   (T/HA)     (MM)
    1   482.70     0.00   137.03   242.03   384.66    92.31    14.15   144.60
    2   253.79     0.00    46.24   130.65   182.88    94.72     4.39   147.85
    3   198.40     0.00    21.46    86.30   112.41   103.79     0.01   138.83
    4   514.12     0.00   152.92   229.98   385.59    89.55     0.08   122.00
    5   208.30     0.00    37.64   113.51   155.28    69.51     0.03   133.41
    6   184.15     0.00    42.26    84.86   130.64    56.21     0.07   130.66
    7   302.85     0.00   119.26   108.79   230.21    62.48     0.43   127.70
    8   228.95     0.00    49.49   112.47   164.14    71.20     0.40   152.15
    9   118.50     0.00     8.81    53.16    63.86    60.58     0.17   138.41
   10   173.77     0.00    21.85    77.90   100.80    67.79     0.69   162.03
   11   347.37     0.00    89.73   164.85   255.42    78.24     4.58   144.69
   12   439.17     0.00   131.12   199.02   332.64    90.18    10.48   146.90

     AVE ANNUAL BASIN STRESS DAYS
               WATER STRESS DAYS =     1.85
               TEMPERATURE STRESS DAYS =     0.11
               NITROGEN STRESS DAYS =     8.64
               PHOSPHORUS STRESS DAYS =     0.09
               AERATION STRESS DAYS =     0.00
1
    SWAT Dec 23 2016    VER 2016/Rev 664                                            

    General Input/Output section (file.cio):                                        
    2/11/2020 17:04:58 QSWAT Workflow v1.5.2                                        
                                                                                    
         AVE ANNUAL BASIN VALUES

              PRECIP =   3445.5 MM
              SNOW FALL =    0.00 MM
              SNOW MELT =     0.00 MM
              SUBLIMATION =     0.00 MM
              SURFACE RUNOFF Q =   856.63 MM
              LATERAL SOIL Q = 1600.15 MM
              TILE Q =     0.00 MM
              GROUNDWATER (SHAL AQ) Q =    34.33 MM
              GROUNDWATER (DEEP AQ) Q =     2.70 MM
              REVAP (SHAL AQ => SOIL/PLANTS) =   33.70 MM
              DEEP AQ RECHARGE =     2.63 MM
              TOTAL AQ RECHARGE =   52.59 MM
              TOTAL WATER YLD =  2493.82 MM
              PERCOLATION OUT OF SOIL =   52.89 MM
              ET =    934.1 MM
              PET =   1685.4MM
              TRANSMISSION LOSSES =     0.00 MM
              SEPTIC INFLOW =       0.00 MM
              TOTAL SEDIMENT LOADING =     35.37 T/HA
              TILE FROM IMPOUNDED WATER =     0.000 (MM)
              EVAPORATION FROM IMPOUNDED WATER =     0.000 (MM)
              SEEPAGE INTO SOIL FROM IMPOUNDED WATER =    0.000 (MM)
              OVERFLOW FROM IMPOUNDED WATER =    0.000 (MM)
1
    SWAT Dec 23 2016    VER 2016/Rev 664                                            

    General Input/Output section (file.cio):                                        
    2/11/2020 17:04:58 QSWAT Workflow v1.5.2                                        
                                                                                    
              AVE ANNUAL BASIN VALUES


              NUTRIENTS
                   ORGANIC N =    38.755 (KG/HA)
                   ORGANIC P =     4.743 (KG/HA)
                   NO3 YIELD (SQ) =     0.150 (KG/HA)
                   NO3 YIELD (LAT) =    1.923 (KG/HA)
                   NO3 YIELD (TILE) =    0.000 (KG/HA)
                   SOLP YIELD (TILE) =    0.000(KG/HA)
                   SOLP YIELD (SURF INLET RISER) =    0.000 (KG/HA)
                   SOL P YIELD =    0.042 (KG/HA)
                   NO3 LEACHED =     0.783 (KG/HA)
                   P LEACHED =     0.024 (KG/HA)
                   N UPTAKE =    11.660 (KG/HA)
                   P UPTAKE =    2.838 (KG/HA)
                   NO3 YIELD (GWQ) =     0.005 (KG/HA)
                   ACTIVE TO SOLUTION P FLOW =        -0.437 (KG/HA)
                   ACTIVE TO STABLE P FLOW =        -0.007 (KG/HA)
                   N FERTILIZER APPLIED =     4.236 (KG/HA)
                   P FERTILIZER APPLIED =     0.000 (KG/HA)
                   N FIXATION =     0.000 (KG/HA)
                   DENITRIFICATION =     0.246 (KG/HA)
                   HUMUS MIN ON ACTIVE ORG N =    12.761 (KG/HA)
                   ACTIVE TO STABLE ORG N =   -10.826 (KG/HA)
                   HUMUS MIN ON ACTIVE ORG P =    2.178 (KG/HA)
                   MIN FROM FRESH ORG N =    2.230 (KG/HA)
                   MIN FROM FRESH ORG P =    0.515 (KG/HA)
                   NO3 IN RAINFALL =     0.000 (KG/HA)
                   INITIAL NO3 IN SOIL =      36.996 (KG/HA)
                   FINAL NO3 IN SOIL =         5.970 (KG/HA)
                   INITIAL ORG N IN SOIL =   12173.738 (KG/HA)
                   FINAL ORG N IN SOIL =     11277.931 (KG/HA)
                   INITIAL MIN P IN SOIL =    1901.516 (KG/HA)
                   FINAL MIN P IN SOIL =      1826.319 (KG/HA)
                   INITIAL ORG P IN SOIL =    1491.283 (KG/HA)
                   FINAL ORG P IN SOIL =    1374.272 (KG/HA)
                   NO3 IN FERT =     4.236 (KG/HA)
                   AMMONIA IN FERT =     0.000 (KG/HA)
                   ORG N IN FERT =     0.000 (KG/HA)
                   MINERAL P IN FERT =     0.018 (KG/HA)
                   ORG P IN FERT =     0.000 (KG/HA)
                   N REMOVED IN YIELD =     9.030 (KG/HA)
                   P REMOVED IN YIELD =     2.231 (KG/HA)
                   AMMONIA VOLATILIZATION =     0.000 (KG/HA)
                   AMMONIA NITRIFICATION =      0.000 (KG/HA)
                   NO3 EVAP-LAYER 2 TO 1 =    3.627

                   DIE-GRO P Q =           0.0 (No/M2)
                   DIE-GRO LP Q =           0.0 (No/M2)
                   DIE-GRO P SED =          0.0 (No/M2)
                   DIE-GRO LP SED =          0.0 (No/M2)
                   BACT P RUNOFF =          0.0 (No/M2)
                   BACT LP RUNOFF =          0.0 (No/M2)
                   BACT P SEDIMENT =          0.0 (No/M2)
                   BACT LP SEDIMENT =          0.0 (No/M2)
                   BACT P INCORP =          0.0 (No/M2)
                   BACT LP INCORP =          0.0 (No/M2)

                   NITRATE SEPTIC =         0.00 (kg/ha)
                   AMMONIA SEPTIC =         0.00 (kg/ha)
                   ORG N SEPTIC =         0.00 (kg/ha)
                   FRESH ORGN SEPTIC =         0.00 (kg/ha)
                   ORG P SEPTIC =         0.00 (kg/ha)
                   FRESH ORGP SEPTIC =         0.00 (kg/ha)
                   SOL P SEPTIC =         0.00 (kg/ha)
                   BOD SEPTIC =         0.00 (kg/ha)
