1
    SWAT Dec 23 2016    VER 2016/Rev 664                                                                 0/ 0/   0      0: 0: 0

    General Input/Output section (file.cio):                                        
    2/7/2020 21:54:14 QSWAT Workflow v1.5.2                                         
                                                                                    
         Number of years in run:   12
         Area of watershed:        2.071 km2
         Random number generator cycles: 0, use default numbers

         Initial random number seed: wet/dry day prob        748932582
         Initial random number seed: radiation              1948832765
         Initial random number seed: precipitation           857034417
         Initial random number seed: 0.5 hr rainfall          67377721
         Initial random number seed: wind speed              366304404
         Initial random number seed: irrigation             1094585182
         Initial random number seed: relative humidity      1767585417
         Initial random number seed: max temperature         608439319
         Initial random number seed: min temperature         592757081

         Precipitation data used in run:
          Multiple gages read for watershed
             Daily rainfall data used

         Temperature data used in run:
          Multiple gages read for watershed

         PET method used: Penman-Monteith

         Rainfall/Runoff/Routing Option:
          Daily rainfall data
          Runoff estimated with curve number method
          Daily stream routing
           Variable Storage routing method
           Channel dimensions remain constant
           Subbasin algae/CBOD loadings not modeled
           In-stream nutrient transformations modeled using QUAL2E equations

         Subbasin Input Summary:
          Sub Latitude  Elev(m) #HRUs Ponds Elevbnds Wetlnd
            1   -14.29   203.85     7                   
            2   -14.29   131.76    14                   
            3   -14.29   113.74     7                   
            4   -14.29   150.31    19                   
            5   -14.29   169.90     4                   
            6   -14.29   226.46     3                   
            7   -14.29   272.67    13                   
            8   -14.29   245.54    12                   
            9   -14.29   103.96    11                   
           10   -14.29    45.98    10                   
           11   -14.29    89.95     9                   
           12   -14.29    51.99    11                   
           13   -14.29    99.53    12                   
           14   -14.29    19.68     6                   
           15   -14.29    22.56     8                   

         HRU Input Summary Table 1:
          Sub   HRU   Area(ha) Slope SlpLgth(m) Ovrlnd_N CondII_CN TimeConc(hr) ESCO EPCO
            1      1       0.01 0.204      15.24    0.100     72.00        0.115 0.95 1.00
            1      2      10.17 0.629       9.15    0.100     70.00        0.109 0.95 1.00
            1      3       0.21 0.095      60.98    0.100     77.00        0.335 0.95 1.00
            1      4       0.01 0.163      18.29    0.140     94.00        0.169 0.95 1.00
            1      5       0.01 0.292       9.15    0.140     94.00        0.093 0.95 1.00
            1      6       0.08 0.121      24.39    0.140     94.00        0.220 0.95 1.00
            1      7       0.03 0.096      60.98    0.140     94.00        0.407 0.95 1.00
            2      8       0.03 0.130      24.39    0.140     94.00        0.214 0.95 1.00
            2      9       0.26 0.286       9.15    0.140     94.00        0.095 0.95 1.00
            2     10       0.02 0.255       9.15    0.140     94.00        0.097 0.95 1.00
            2     11       0.06 0.289       9.15    0.140     94.00        0.094 0.95 1.00
            2     12       0.06 0.323       9.15    0.140     83.00        0.091 0.95 1.00
            2     13       0.04 0.133      24.39    0.100     79.00        0.174 0.95 1.00
            2     14       0.06 0.328       9.15    0.100     72.00        0.074 0.95 1.00
            2     15       0.03 0.002     121.95    0.100     77.00        1.609 0.95 1.00
            2     16       0.33 0.186      18.29    0.100     77.00        0.134 0.95 1.00
            2     17       0.01 0.002     121.95    0.100     70.00        1.609 0.95 1.00
            2     18       0.01 0.011     121.95    0.100     70.00        0.965 0.95 1.00
            2     19      10.76 0.504       9.15    0.100     70.00        0.103 0.95 1.00
            2     20       0.15 0.141      24.39    0.100     83.00        0.172 0.95 1.00
            2     21       0.12 0.304       9.15    0.100     77.00        0.076 0.95 1.00
            3     22       2.91 0.379       9.15    0.100     55.00        0.082 0.95 1.00
            3     23       7.82 0.637       9.15    0.100     70.00        0.087 0.95 1.00
            3     24       2.40 0.138      24.39    0.100     77.00        0.181 0.95 1.00
            3     25       0.07 0.355       9.15    0.100     77.00        0.072 0.95 1.00
            3     26       1.28 0.147      24.39    0.100     77.00        0.174 0.95 1.00
            3     27       0.47 0.184      18.29    0.100     77.00        0.135 0.95 1.00
            3     28       0.01 0.348       9.15    0.100     77.00        0.072 0.95 1.00
            4     29       0.52 0.286       9.15    0.100     77.00        0.078 0.95 1.00
            4     30       0.42 0.160      24.39    0.100     77.00        0.166 0.95 1.00
            4     31       0.36 0.356       9.15    0.100     77.00        0.073 0.95 1.00
            4     32       0.36 0.334       9.15    0.100     77.00        0.074 0.95 1.00
            4     33       0.03 0.100      60.98    0.100     77.00        0.328 0.95 1.00
            4     34       0.17 0.450       9.15    0.140     77.00        0.083 0.95 1.00
            4     35       0.07 0.462       9.15    0.140     83.00        0.082 0.95 1.00
            4     36       0.06 0.256       9.15    0.100     59.00        0.080 0.95 1.00
            4     37       0.09 0.436       9.15    0.100     72.00        0.068 0.95 1.00
            4     38       0.01 0.220      15.24    0.100     79.00        0.113 0.95 1.00
            4     39       4.85 0.297       9.15    0.100     55.00        0.087 0.95 1.00
            4     40       0.01 0.009     121.95    0.100     77.00        1.025 0.95 1.00
            4     41       0.04 0.023      91.46    0.100     77.00        0.651 0.95 1.00
            4     42       1.94 0.150      24.39    0.100     77.00        0.173 0.95 1.00
            4     43      11.31 0.619       9.15    0.100     70.00        0.084 0.95 1.00
            4     44       0.25 0.174      18.29    0.100     66.00        0.136 0.95 1.00
            4     45       0.09 0.187      18.29    0.100     83.00        0.132 0.95 1.00
            4     46       0.16 0.219      15.24    0.140     94.00        0.139 0.95 1.00
            4     47       0.24 0.225      15.24    0.010     92.00        0.029 0.95 1.00
            5     48       0.03 0.180      18.29    0.100     72.00        0.134 0.95 1.00
            5     49       0.02 0.000     121.95    0.100     70.00        3.952 0.95 1.00
            5     50      12.68 0.474       9.15    0.100     70.00        0.102 0.95 1.00
            5     51       0.02 0.226      15.24    0.100     70.00        0.112 0.95 1.00
            6     52       0.13 0.172      18.29    0.100     72.00        0.136 0.95 1.00
            6     53      26.57 0.633       9.15    0.100     70.00        0.100 0.95 1.00
            6     54       0.01 0.195      18.29    0.100     70.00        0.130 0.95 1.00
            7     55       0.27 0.693       9.15    0.100     72.00        0.061 0.95 1.00
            7     56       0.60 0.196      18.29    0.100     55.00        0.134 0.95 1.00
            7     57       0.30 0.153      24.39    0.100     77.00        0.169 0.95 1.00
            7     58       0.01 0.000     121.95    0.100     70.00        3.952 0.95 1.00
            7     59      12.78 0.719       9.15    0.100     70.00        0.112 0.95 1.00
            7     60       0.01 0.318       9.15    0.100     66.00        0.074 0.95 1.00
            7     61       0.51 0.463       9.15    0.100     77.00        0.070 0.95 1.00
            7     62       0.15 0.217      15.24    0.100     77.00        0.114 0.95 1.00
            7     63       0.35 0.143      24.39    0.100     77.00        0.172 0.95 1.00
            7     64       0.13 0.302       9.15    0.100     77.00        0.076 0.95 1.00
            7     65       0.02 0.207      15.24    0.100     77.00        0.115 0.95 1.00
            7     66       0.22 0.134      24.39    0.100     77.00        0.175 0.95 1.00
            7     67       0.01 0.311       9.15    0.100     77.00        0.075 0.95 1.00
            8     68       0.04 0.284       9.15    0.100     59.00        0.077 0.95 1.00
            8     69       0.06 0.475       9.15    0.100     72.00        0.066 0.95 1.00
            8     70       0.01 0.026      91.46    0.100     55.00        0.627 0.95 1.00
            8     71       5.14 0.246      15.24    0.100     55.00        0.118 0.95 1.00
            8     72       0.14 0.164      18.29    0.100     77.00        0.138 0.95 1.00
            8     73       0.01 0.000     121.95    0.100     70.00        3.952 0.95 1.00
            8     74      46.33 0.627       9.15    0.100     70.00        0.119 0.95 1.00
            8     75       0.08 0.656       9.15    0.140     91.00        0.073 0.95 1.00
            8     76       0.01 0.029      91.46    0.140     91.00        0.743 0.95 1.00
            8     77       1.32 0.237      15.24    0.140     91.00        0.138 0.95 1.00
            8     78       0.02 0.180      18.29    0.140     91.00        0.164 0.95 1.00
            8     79       0.22 0.294       9.15    0.140     91.00        0.094 0.95 1.00
            9     80       0.40 0.153      24.39    0.140     91.00        0.206 0.95 1.00
            9     81       0.07 0.116      60.98    0.140     91.00        0.385 0.95 1.00
            9     82       0.04 0.146      24.39    0.140     91.00        0.207 0.95 1.00
            9     83       0.18 0.212      15.24    0.140     91.00        0.141 0.95 1.00
            9     84       0.11 0.489       9.15    0.140     83.00        0.081 0.95 1.00
            9     85       0.01 0.120      24.39    0.100     79.00        0.179 0.95 1.00
            9     86       0.10 0.121      24.39    0.100     72.00        0.179 0.95 1.00
            9     87       8.35 0.489       9.15    0.100     70.00        0.093 0.95 1.00
            9     88       0.14 0.140      24.39    0.100     77.00        0.172 0.95 1.00
            9     89       0.43 0.316       9.15    0.100     77.00        0.077 0.95 1.00
            9     90       0.02 0.113      60.98    0.100     83.00        0.317 0.95 1.00
           10     91       0.06 0.441       9.15    0.100     72.00        0.068 0.95 1.00
           10     92       0.08 0.158      24.39    0.100     79.00        0.166 0.95 1.00
           10     93       0.10 0.027      91.46    0.100     77.00        0.621 0.95 1.00
           10     94       1.76 0.119      60.98    0.100     77.00        0.322 0.95 1.00
           10     95       3.60 0.390       9.15    0.100     70.00        0.090 0.95 1.00
           10     96       0.65 0.131      24.39    0.100     70.00        0.179 0.95 1.00
           10     97       0.33 0.222      15.24    0.100     70.00        0.115 0.95 1.00
           10     98       0.03 0.028      91.46    0.100     70.00        0.614 0.95 1.00
           10     99       0.12 0.072      60.98    0.100     70.00        0.363 0.95 1.00
           10    100       0.06 0.267       9.15    0.100     70.00        0.079 0.95 1.00
           11    101       0.24 0.205      15.24    0.100     70.00        0.122 0.95 1.00
           11    102       0.53 0.160      24.39    0.100     70.00        0.178 0.95 1.00
           11    103       0.01 0.305       9.15    0.100     66.00        0.076 0.95 1.00
           11    104       0.55 0.249      15.24    0.100     55.00        0.123 0.95 1.00
           11    105       0.01 0.022      91.46    0.100     77.00        0.660 0.95 1.00
           11    106       0.70 0.160      24.39    0.100     77.00        0.182 0.95 1.00
           11    107       0.21 0.665       9.15    0.100     70.00        0.065 0.95 1.00
           11    108       0.06 0.325       9.15    0.100     70.00        0.076 0.95 1.00
           11    109       0.06 0.177      18.29    0.100     70.00        0.136 0.95 1.00
           12    110       0.15 0.202      15.24    0.100     55.00        0.118 0.95 1.00
           12    111       0.01 0.000     121.95    0.100     77.00        3.952 0.95 1.00
           12    112       0.01 0.014     121.95    0.100     77.00        0.897 0.95 1.00
           12    113       0.85 0.126      24.39    0.100     77.00        0.185 0.95 1.00
           12    114       0.01 0.004     121.95    0.100     70.00        1.307 0.95 1.00
           12    115       0.02 0.020      91.46    0.100     70.00        0.679 0.95 1.00
           12    116       2.04 0.345       9.15    0.100     70.00        0.090 0.95 1.00
           12    117       0.47 0.114      60.98    0.100     70.00        0.320 0.95 1.00
           12    118       0.01 0.020      91.46    0.100     70.00        0.679 0.95 1.00
           12    119       0.09 0.206      15.24    0.100     70.00        0.116 0.95 1.00
           12    120       0.12 0.116      60.98    0.100     70.00        0.315 0.95 1.00
           13    121       0.01 0.180      18.29    0.140     94.00        0.164 0.95 1.00
           13    122       0.27 0.021      91.46    0.140     94.00        0.820 0.95 1.00
           13    123       1.00 0.123      24.39    0.140     94.00        0.222 0.95 1.00
           13    124       0.12 0.278       9.15    0.140     94.00        0.095 0.95 1.00
           13    125       0.01 0.009     121.95    0.100     77.00        1.025 0.95 1.00
           13    126       0.38 0.023      91.46    0.100     77.00        0.653 0.95 1.00
           13    127       2.34 0.124      24.39    0.100     77.00        0.187 0.95 1.00
           13    128       0.01 0.000     121.95    0.100     70.00        3.952 0.95 1.00
           13    129      10.96 0.469       9.15    0.100     70.00        0.103 0.95 1.00
           13    130       0.55 0.273       9.15    0.100     77.00        0.081 0.95 1.00
           13    131       0.08 0.026      91.46    0.100     77.00        0.628 0.95 1.00
           13    132       0.16 0.121      24.39    0.100     77.00        0.180 0.95 1.00
           14    133       0.02 0.029      91.46    0.100     77.00        0.609 0.95 1.00
           14    134       0.28 0.047      91.46    0.100     77.00        0.543 0.95 1.00
           14    135       0.06 0.025      91.46    0.100     77.00        0.639 0.95 1.00
           14    136       0.16 0.047      91.46    0.100     77.00        0.537 0.95 1.00
           14    137       0.02 0.025      91.46    0.100     77.00        0.636 0.95 1.00
           14    138       0.09 0.053      60.98    0.100     77.00        0.404 0.95 1.00
           15    139       0.02 0.488       9.15    0.100     72.00        0.066 0.95 1.00
           15    140       0.01 0.027      91.46    0.100     72.00        0.620 0.95 1.00
           15    141       0.19 0.061      60.98    0.100     72.00        0.386 0.95 1.00
           15    142       0.26 0.142      24.39    0.100     72.00        0.177 0.95 1.00
           15    143       0.13 0.056      60.98    0.100     77.00        0.394 0.95 1.00
           15    144       0.45 0.337       9.15    0.100     70.00        0.083 0.95 1.00
           15    145       0.02 0.097      60.98    0.100     70.00        0.332 0.95 1.00
           15    146       0.02 0.049      91.46    0.100     70.00        0.519 0.95 1.00

         HRU CN Input Summary Table:
          Sub   HRU   Area(ha)  LULC      Soil    CN1    CN2    CN3  Wilting Point (mm H2O)  Field Capacity (mm H2O)  Saturation (mm H2O)
            1      1       0.01  SWCH  FAGASA     53.4   72.0   86.9                   132.2                     97.2                365.5
            1      2      10.17  FRSE  FAGASA     51.2   70.0   85.7                   132.2                     97.2                365.5
            1      3       0.21  FRSE  URBAN LA   59.3   77.0   89.9                     0.8                      1.5                 75.7
            1      4       0.01  BARR  URBAN LA   85.8   94.0   97.9                     0.8                      1.5                 75.7
            1      5       0.01  BARR  FAGASA     85.8   94.0   97.9                   132.2                     97.2                365.5
            1      6       0.08  BARR  URBAN LA   85.8   94.0   97.9                     0.8                      1.5                 75.7
            1      7       0.03  BARR  URBAN LA   85.8   94.0   97.9                     0.8                      1.5                 75.7
            2      8       0.03  BARR  URBAN LA   85.8   94.0   97.9                     0.8                      1.5                 75.7
            2      9       0.26  BARR  FAGASA     85.8   94.0   97.9                   132.2                     97.2                365.5
            2     10       0.02  BARR  URBAN LA   85.8   94.0   97.9                     0.8                      1.5                 75.7
            2     11       0.06  BARR  FAGASA     85.8   94.0   97.9                   132.2                     97.2                365.5
            2     12       0.06  AGRL  FAGASA     67.0   83.0   93.1                   132.2                     97.2                365.5
            2     13       0.04  SWCH  URBAN LA   61.7   79.0   91.0                     0.8                      1.5                 75.7
            2     14       0.06  SWCH  FAGASA     53.4   72.0   86.9                   132.2                     97.2                365.5
            2     15       0.03  FRSE  URBAN LA   59.3   77.0   89.9                     0.8                      1.5                 75.7
            2     16       0.33  FRSE  URBAN LA   59.3   77.0   89.9                     0.8                      1.5                 75.7
            2     17       0.01  FRSE  FAGASA     51.2   70.0   85.7                   132.2                     97.2                365.5
            2     18       0.01  FRSE  FAGASA     51.2   70.0   85.7                   132.2                     97.2                365.5
            2     19      10.76  FRSE  FAGASA     51.2   70.0   85.7                   132.2                     97.2                365.5
            2     20       0.15  FRSD  URBAN LA   67.0   83.0   93.1                     0.8                      1.5                 75.7
            2     21       0.12  FRSD  FAGASA     59.3   77.0   89.9                   132.2                     97.2                365.5
            3     22       2.91  FRSE  AUA        35.3   55.0   74.5                   211.7                    165.8                763.4
            3     23       7.82  FRSE  FAGASA     51.2   70.0   85.7                   132.2                     97.2                365.5
            3     24       2.40  FRSE  URBAN LA   59.3   77.0   89.9                     0.8                      1.5                 75.7
            3     25       0.07  FRSE  FAGASA     59.3   77.0   89.9                   132.2                     97.2                365.5
            3     26       1.28  FRSE  URBAN LA   59.3   77.0   89.9                     0.8                      1.5                 75.7
            3     27       0.47  FRSE  URBAN LA   59.3   77.0   89.9                     0.8                      1.5                 75.7
            3     28       0.01  FRSE  FAGASA     59.3   77.0   89.9                   132.2                     97.2                365.5
            4     29       0.52  FRSE  AUA        59.3   77.0   89.9                   211.7                    165.8                763.4
            4     30       0.42  FRSE  URBAN LA   59.3   77.0   89.9                     0.8                      1.5                 75.7
            4     31       0.36  FRSE  FAGASA     59.3   77.0   89.9                   132.2                     97.2                365.5
            4     32       0.36  FRSE  AUA        59.3   77.0   89.9                   211.7                    165.8                763.4
            4     33       0.03  FRSE  URBAN LA   59.3   77.0   89.9                     0.8                      1.5                 75.7
            4     34       0.17  AGRL  AUA        59.3   77.0   89.9                   211.7                    165.8                763.4
            4     35       0.07  AGRL  FAGASA     67.0   83.0   93.1                   132.2                     97.2                365.5
            4     36       0.06  SWCH  AUA        39.4   59.0   77.7                   211.7                    165.8                763.4
            4     37       0.09  SWCH  FAGASA     53.4   72.0   86.9                   132.2                     97.2                365.5
            4     38       0.01  SWCH  URBAN LA   61.7   79.0   91.0                     0.8                      1.5                 75.7
            4     39       4.85  FRSE  AUA        35.3   55.0   74.5                   211.7                    165.8                763.4
            4     40       0.01  FRSE  URBAN LA   59.3   77.0   89.9                     0.8                      1.5                 75.7
            4     41       0.04  FRSE  URBAN LA   59.3   77.0   89.9                     0.8                      1.5                 75.7
            4     42       1.94  FRSE  URBAN LA   59.3   77.0   89.9                     0.8                      1.5                 75.7
            4     43      11.31  FRSE  FAGASA     51.2   70.0   85.7                   132.2                     97.2                365.5
            4     44       0.25  FRSD  AUA        46.8   66.0   83.0                   211.7                    165.8                763.4
            4     45       0.09  FRSD  URBAN LA   67.0   83.0   93.1                     0.8                      1.5                 75.7
            4     46       0.16  BARR  URBAN LA   85.8   94.0   97.9                     0.8                      1.5                 75.7
            4     47       0.24  WATR  URBAN LA   81.7   92.0   97.1                     0.8                      1.5                 75.7
            5     48       0.03  SWCH  FAGASA     53.4   72.0   86.9                   132.2                     97.2                365.5
            5     49       0.02  FRSE  FAGASA     51.2   70.0   85.7                   132.2                     97.2                365.5
            5     50      12.68  FRSE  FAGASA     51.2   70.0   85.7                   132.2                     97.2                365.5
            5     51       0.02  FRSE  FAGASA     51.2   70.0   85.7                   132.2                     97.2                365.5
            6     52       0.13  SWCH  FAGASA     53.4   72.0   86.9                   132.2                     97.2                365.5
            6     53      26.57  FRSE  FAGASA     51.2   70.0   85.7                   132.2                     97.2                365.5
            6     54       0.01  FRSE  FAGASA     51.2   70.0   85.7                   132.2                     97.2                365.5
            7     55       0.27  SWCH  FAGASA     53.4   72.0   86.9                   132.2                     97.2                365.5
            7     56       0.60  FRSE  AUA        35.3   55.0   74.5                   211.7                    165.8                763.4
            7     57       0.30  FRSE  URBAN LA   59.3   77.0   89.9                     0.8                      1.5                 75.7
            7     58       0.01  FRSE  FAGASA     51.2   70.0   85.7                   132.2                     97.2                365.5
            7     59      12.78  FRSE  FAGASA     51.2   70.0   85.7                   132.2                     97.2                365.5
            7     60       0.01  FRSD  AUA        46.8   66.0   83.0                   211.7                    165.8                763.4
            7     61       0.51  FRSD  FAGASA     59.3   77.0   89.9                   132.2                     97.2                365.5
            7     62       0.15  FRSD  AUA        59.3   77.0   89.9                   211.7                    165.8                763.4
            7     63       0.35  FRSD  URBAN LA   59.3   77.0   89.9                     0.8                      1.5                 75.7
            7     64       0.13  FRSD  FAGASA     59.3   77.0   89.9                   132.2                     97.2                365.5
            7     65       0.02  FRSD  AUA        59.3   77.0   89.9                   211.7                    165.8                763.4
            7     66       0.22  FRSD  URBAN LA   59.3   77.0   89.9                     0.8                      1.5                 75.7
            7     67       0.01  FRSD  FAGASA     59.3   77.0   89.9                   132.2                     97.2                365.5
            8     68       0.04  SWCH  AUA        39.4   59.0   77.7                   211.7                    165.8                763.4
            8     69       0.06  SWCH  FAGASA     53.4   72.0   86.9                   132.2                     97.2                365.5
            8     70       0.01  FRSE  AUA        35.3   55.0   74.5                   211.7                    165.8                763.4
            8     71       5.14  FRSE  AUA        35.3   55.0   74.5                   211.7                    165.8                763.4
            8     72       0.14  FRSE  URBAN LA   59.3   77.0   89.9                     0.8                      1.5                 75.7
            8     73       0.01  FRSE  FAGASA     51.2   70.0   85.7                   132.2                     97.2                365.5
            8     74      46.33  FRSE  FAGASA     51.2   70.0   85.7                   132.2                     97.2                365.5
            8     75       0.08  BARR  FAGASA     79.8   91.0   96.7                   132.2                     97.2                365.5
            8     76       0.01  BARR  AUA        79.8   91.0   96.7                   211.7                    165.8                763.4
            8     77       1.32  BARR  AUA        79.8   91.0   96.7                   211.7                    165.8                763.4
            8     78       0.02  BARR  URBAN LA   79.8   91.0   96.7                     0.8                      1.5                 75.7
            8     79       0.22  BARR  AUA        79.8   91.0   96.7                   211.7                    165.8                763.4
            9     80       0.40  BARR  FAGASA     79.8   91.0   96.7                   132.2                     97.2                365.5
            9     81       0.07  BARR  URBAN LA   79.8   91.0   96.7                     0.8                      1.5                 75.7
            9     82       0.04  BARR  URBAN LA   79.8   91.0   96.7                     0.8                      1.5                 75.7
            9     83       0.18  BARR  FAGASA     79.8   91.0   96.7                   132.2                     97.2                365.5
            9     84       0.11  AGRL  FAGASA     67.0   83.0   93.1                   132.2                     97.2                365.5
            9     85       0.01  SWCH  URBAN LA   61.7   79.0   91.0                     0.8                      1.5                 75.7
            9     86       0.10  SWCH  FAGASA     53.4   72.0   86.9                   132.2                     97.2                365.5
            9     87       8.35  FRSE  FAGASA     51.2   70.0   85.7                   132.2                     97.2                365.5
            9     88       0.14  FRSE  URBAN LA   59.3   77.0   89.9                     0.8                      1.5                 75.7
            9     89       0.43  FRSD  FAGASA     59.3   77.0   89.9                   132.2                     97.2                365.5
            9     90       0.02  FRSD  URBAN LA   67.0   83.0   93.1                     0.8                      1.5                 75.7
           10     91       0.06  SWCH  FAGASA     53.4   72.0   86.9                   132.2                     97.2                365.5
           10     92       0.08  SWCH  URBAN LA   61.7   79.0   91.0                     0.8                      1.5                 75.7
           10     93       0.10  FRSE  URBAN LA   59.3   77.0   89.9                     0.8                      1.5                 75.7
           10     94       1.76  FRSE  URBAN LA   59.3   77.0   89.9                     0.8                      1.5                 75.7
           10     95       3.60  FRSE  FAGASA     51.2   70.0   85.7                   132.2                     97.2                365.5
           10     96       0.65  FRSE  URBAN LA   51.2   70.0   85.7                     0.8                      1.5                 75.7
           10     97       0.33  FRSE  FAGASA     51.2   70.0   85.7                   132.2                     97.2                365.5
           10     98       0.03  FRSE  URBAN LA   51.2   70.0   85.7                     0.8                      1.5                 75.7
           10     99       0.12  FRSE  URBAN LA   51.2   70.0   85.7                     0.8                      1.5                 75.7
           10    100       0.06  FRSE  FAGASA     51.2   70.0   85.7                   132.2                     97.2                365.5
           11    101       0.24  FRSE  AUA        51.2   70.0   85.7                   211.7                    165.8                763.4
           11    102       0.53  FRSE  URBAN LA   51.2   70.0   85.7                     0.8                      1.5                 75.7
           11    103       0.01  FRSD  AUA        46.8   66.0   83.0                   211.7                    165.8                763.4
           11    104       0.55  FRSE  AUA        35.3   55.0   74.5                   211.7                    165.8                763.4
           11    105       0.01  FRSE  URBAN LA   59.3   77.0   89.9                     0.8                      1.5                 75.7
           11    106       0.70  FRSE  URBAN LA   59.3   77.0   89.9                     0.8                      1.5                 75.7
           11    107       0.21  FRSE  FAGASA     51.2   70.0   85.7                   132.2                     97.2                365.5
           11    108       0.06  FRSE  AUA        51.2   70.0   85.7                   211.7                    165.8                763.4
           11    109       0.06  FRSE  URBAN LA   51.2   70.0   85.7                     0.8                      1.5                 75.7
           12    110       0.15  FRSE  AUA        35.3   55.0   74.5                   211.7                    165.8                763.4
           12    111       0.01  FRSE  URBAN LA   59.3   77.0   89.9                     0.8                      1.5                 75.7
           12    112       0.01  FRSE  URBAN LA   59.3   77.0   89.9                     0.8                      1.5                 75.7
           12    113       0.85  FRSE  URBAN LA   59.3   77.0   89.9                     0.8                      1.5                 75.7
           12    114       0.01  FRSE  FAGASA     51.2   70.0   85.7                   132.2                     97.2                365.5
           12    115       0.02  FRSE  FAGASA     51.2   70.0   85.7                   132.2                     97.2                365.5
           12    116       2.04  FRSE  FAGASA     51.2   70.0   85.7                   132.2                     97.2                365.5
           12    117       0.47  FRSE  URBAN LA   51.2   70.0   85.7                     0.8                      1.5                 75.7
           12    118       0.01  FRSE  FAGASA     51.2   70.0   85.7                   132.2                     97.2                365.5
           12    119       0.09  FRSE  FAGASA     51.2   70.0   85.7                   132.2                     97.2                365.5
           12    120       0.12  FRSE  URBAN LA   51.2   70.0   85.7                     0.8                      1.5                 75.7
           13    121       0.01  BARR  URBAN LA   85.8   94.0   97.9                     0.8                      1.5                 75.7
           13    122       0.27  BARR  URBAN LA   85.8   94.0   97.9                     0.8                      1.5                 75.7
           13    123       1.00  BARR  URBAN LA   85.8   94.0   97.9                     0.8                      1.5                 75.7
           13    124       0.12  BARR  FAGASA     85.8   94.0   97.9                   132.2                     97.2                365.5
           13    125       0.01  FRSE  URBAN LA   59.3   77.0   89.9                     0.8                      1.5                 75.7
           13    126       0.38  FRSE  URBAN LA   59.3   77.0   89.9                     0.8                      1.5                 75.7
           13    127       2.34  FRSE  URBAN LA   59.3   77.0   89.9                     0.8                      1.5                 75.7
           13    128       0.01  FRSE  FAGASA     51.2   70.0   85.7                   132.2                     97.2                365.5
           13    129      10.96  FRSE  FAGASA     51.2   70.0   85.7                   132.2                     97.2                365.5
           13    130       0.55  FRSD  FAGASA     59.3   77.0   89.9                   132.2                     97.2                365.5
           13    131       0.08  FRSD  URBAN LA   59.3   77.0   89.9                     0.8                      1.5                 75.7
           13    132       0.16  FRSD  URBAN LA   59.3   77.0   89.9                     0.8                      1.5                 75.7
           14    133       0.02  FRSD  URBAN LA   59.3   77.0   89.9                     0.8                      1.5                 75.7
           14    134       0.28  FRSD  URBAN LA   59.3   77.0   89.9                     0.8                      1.5                 75.7
           14    135       0.06  FRSE  URBAN LA   59.3   77.0   89.9                     0.8                      1.5                 75.7
           14    136       0.16  FRSE  URBAN LA   59.3   77.0   89.9                     0.8                      1.5                 75.7
           14    137       0.02  FRSE  URBAN LA   59.3   77.0   89.9                     0.8                      1.5                 75.7
           14    138       0.09  FRSE  URBAN LA   59.3   77.0   89.9                     0.8                      1.5                 75.7
           15    139       0.02  SWCH  FAGASA     53.4   72.0   86.9                   132.2                     97.2                365.5
           15    140       0.01  SWCH  URBAN LA   53.4   72.0   86.9                     0.8                      1.5                 75.7
           15    141       0.19  SWCH  URBAN LA   53.4   72.0   86.9                     0.8                      1.5                 75.7
           15    142       0.26  SWCH  FAGASA     53.4   72.0   86.9                   132.2                     97.2                365.5
           15    143       0.13  FRSE  URBAN LA   59.3   77.0   89.9                     0.8                      1.5                 75.7
           15    144       0.45  FRSE  FAGASA     51.2   70.0   85.7                   132.2                     97.2                365.5
           15    145       0.02  FRSE  FAGASA     51.2   70.0   85.7                   132.2                     97.2                365.5
           15    146       0.02  FRSE  URBAN LA   51.2   70.0   85.7                     0.8                      1.5                 75.7

         HRU Input Summary Table 2:
          Sub   HRU   Area(ha)         SoilName Hydgrp MaxRtDpth(mm) Albedo USLE_K USLE_P USLE_LS ProfileAWC(mm) IniSoilH2O(mm)
            1      1       0.01 FAGASA             C           840.00   0.16   0.10   1.00    2.87     97.200         71.232
            1      2      10.17 FAGASA             C           840.00   0.16   0.10   1.00   12.38     97.200         71.232
            1      3       0.21 URBAN LAND         D           150.00   0.16   0.00   1.00    1.95      1.500          1.099
            1      4       0.01 URBAN LAND         D           100.00   0.16   0.00   1.00    2.22      1.500          1.099
            1      5       0.01 FAGASA             C           100.00   0.16   0.10   1.00    3.82     97.200         71.232
            1      6       0.08 URBAN LAND         D           100.00   0.16   0.00   1.00    1.65      1.500          1.099
            1      7       0.03 URBAN LAND         D           100.00   0.16   0.00   1.00    1.98      1.500          1.099
            2      8       0.03 URBAN LAND         D           100.00   0.16   0.00   1.00    1.84      1.500          1.099
            2      9       0.26 FAGASA             C           100.00   0.16   0.10   1.00    3.69     97.200         71.232
            2     10       0.02 URBAN LAND         D           100.00   0.16   0.00   1.00    3.05      1.500          1.099
            2     11       0.06 FAGASA             C           100.00   0.16   0.10   1.00    3.75     97.200         71.232
            2     12       0.06 FAGASA             C           840.00   0.16   0.10   1.00    4.50     97.200         71.232
            2     13       0.04 URBAN LAND         D           150.00   0.16   0.00   1.00    1.91      1.500          1.099
            2     14       0.06 FAGASA             C           840.00   0.16   0.10   1.00    4.61     97.200         71.232
            2     15       0.03 URBAN LAND         D           150.00   0.16   0.00   1.00    0.08      1.500          1.099
            2     16       0.33 URBAN LAND         D           150.00   0.16   0.00   1.00    2.75      1.500          1.099
            2     17       0.01 FAGASA             C           840.00   0.16   0.10   1.00    0.08     97.200         71.232
            2     18       0.01 FAGASA             C           840.00   0.16   0.10   1.00    0.17     97.200         71.232
            2     19      10.76 FAGASA             C           840.00   0.16   0.10   1.00    9.04     97.200         71.232
            2     20       0.15 URBAN LAND         D           150.00   0.16   0.00   1.00    2.09      1.500          1.099
            2     21       0.12 FAGASA             C           840.00   0.16   0.10   1.00    4.08     97.200         71.232
            3     22       2.91 AUA                B          1520.00   0.16   0.17   1.00    5.82    165.800        121.506
            3     23       7.82 FAGASA             C           840.00   0.16   0.10   1.00   12.59     97.200         71.232
            3     24       2.40 URBAN LAND         D           150.00   0.16   0.00   1.00    2.02      1.500          1.099
            3     25       0.07 FAGASA             C           840.00   0.16   0.10   1.00    5.24     97.200         71.232
            3     26       1.28 URBAN LAND         D           150.00   0.16   0.00   1.00    2.24      1.500          1.099
            3     27       0.47 URBAN LAND         D           150.00   0.16   0.00   1.00    2.71      1.500          1.099
            3     28       0.01 FAGASA             C           840.00   0.16   0.10   1.00    5.08     97.200         71.232
            4     29       0.52 AUA                B          1520.00   0.16   0.17   1.00    3.69    165.800        121.506
            4     30       0.42 URBAN LAND         D           150.00   0.16   0.00   1.00    2.56      1.500          1.099
            4     31       0.36 FAGASA             C           840.00   0.16   0.10   1.00    5.27     97.200         71.232
            4     32       0.36 AUA                B          1520.00   0.16   0.17   1.00    4.75    165.800        121.506
            4     33       0.03 URBAN LAND         D           150.00   0.16   0.00   1.00    2.11      1.500          1.099
            4     34       0.17 AUA                B          1520.00   0.16   0.17   1.00    7.62    165.800        121.506
            4     35       0.07 FAGASA             C           840.00   0.16   0.10   1.00    7.94     97.200         71.232
            4     36       0.06 AUA                B          1520.00   0.16   0.17   1.00    3.07    165.800        121.506
            4     37       0.09 FAGASA             C           840.00   0.16   0.10   1.00    7.26     97.200         71.232
            4     38       0.01 URBAN LAND         D           150.00   0.16   0.00   1.00    3.25      1.500          1.099
            4     39       4.85 AUA                B          1520.00   0.16   0.17   1.00    3.92    165.800        121.506
            4     40       0.01 URBAN LAND         D           150.00   0.16   0.00   1.00    0.15      1.500          1.099
            4     41       0.04 URBAN LAND         D           150.00   0.16   0.00   1.00    0.33      1.500          1.099
            4     42       1.94 URBAN LAND         D           150.00   0.16   0.00   1.00    2.31      1.500          1.099
            4     43      11.31 FAGASA             C           840.00   0.16   0.10   1.00   12.11     97.200         71.232
            4     44       0.25 AUA                B          1520.00   0.16   0.17   1.00    2.47    165.800        121.506
            4     45       0.09 URBAN LAND         D           150.00   0.16   0.00   1.00    2.78      1.500          1.099
            4     46       0.16 URBAN LAND         D           100.00   0.16   0.00   1.00    3.23      1.500          1.099
            4     47       0.24 URBAN LAND         D           150.00   0.16   0.00   1.00    3.37      1.500          1.099
            5     48       0.03 FAGASA             C           840.00   0.16   0.10   1.00    2.61     97.200         71.232
            5     49       0.02 FAGASA             C           840.00   0.16   0.10   1.00    0.07     97.200         71.232
            5     50      12.68 FAGASA             C           840.00   0.16   0.10   1.00    8.25     97.200         71.232
            5     51       0.02 FAGASA             C           840.00   0.16   0.10   1.00    3.40     97.200         71.232
            6     52       0.13 FAGASA             C           840.00   0.16   0.10   1.00    2.42     97.200         71.232
            6     53      26.57 FAGASA             C           840.00   0.16   0.10   1.00   12.49     97.200         71.232
            6     54       0.01 FAGASA             C           840.00   0.16   0.10   1.00    2.97     97.200         71.232
            7     55       0.27 FAGASA             C           840.00   0.16   0.10   1.00   14.06     97.200         71.232
            7     56       0.60 AUA                B          1520.00   0.16   0.17   1.00    3.00    165.800        121.506
            7     57       0.30 URBAN LAND         D           150.00   0.16   0.00   1.00    2.39      1.500          1.099
            7     58       0.01 FAGASA             C           840.00   0.16   0.10   1.00    0.07     97.200         71.232
            7     59      12.78 FAGASA             C           840.00   0.16   0.10   1.00   14.72     97.200         71.232
            7     60       0.01 AUA                B          1520.00   0.16   0.17   1.00    4.39    165.800        121.506
            7     61       0.51 FAGASA             C           840.00   0.16   0.10   1.00    7.96     97.200         71.232
            7     62       0.15 AUA                B          1520.00   0.16   0.17   1.00    3.18    165.800        121.506
            7     63       0.35 URBAN LAND         D           150.00   0.16   0.00   1.00    2.14      1.500          1.099
            7     64       0.13 FAGASA             C           840.00   0.16   0.10   1.00    4.03     97.200         71.232
            7     65       0.02 AUA                B          1520.00   0.16   0.17   1.00    2.94    165.800        121.506
            7     66       0.22 URBAN LAND         D           150.00   0.16   0.00   1.00    1.93      1.500          1.099
            7     67       0.01 FAGASA             C           840.00   0.16   0.10   1.00    4.23     97.200         71.232
            8     68       0.04 AUA                B          1520.00   0.16   0.17   1.00    3.64    165.800        121.506
            8     69       0.06 FAGASA             C           840.00   0.16   0.10   1.00    8.28     97.200         71.232
            8     70       0.01 AUA                B          1520.00   0.16   0.17   1.00    0.38    165.800        121.506
            8     71       5.14 AUA                B          1520.00   0.16   0.17   1.00    3.91    165.800        121.506
            8     72       0.14 URBAN LAND         D           150.00   0.16   0.00   1.00    2.25      1.500          1.099
            8     73       0.01 FAGASA             C           840.00   0.16   0.10   1.00    0.07     97.200         71.232
            8     74      46.33 FAGASA             C           840.00   0.16   0.10   1.00   12.33     97.200         71.232
            8     75       0.08 FAGASA             C           100.00   0.16   0.10   1.00   13.09     97.200         71.232
            8     76       0.01 AUA                B           100.00   0.16   0.17   1.00    0.44    165.800        121.506
            8     77       1.32 AUA                B           100.00   0.16   0.17   1.00    3.67    165.800        121.506
            8     78       0.02 URBAN LAND         D           100.00   0.16   0.00   1.00    2.61      1.500          1.099
            8     79       0.22 AUA                B           100.00   0.16   0.17   1.00    3.86    165.800        121.506
            9     80       0.40 FAGASA             C           100.00   0.16   0.10   1.00    2.39     97.200         71.232
            9     81       0.07 URBAN LAND         D           100.00   0.16   0.00   1.00    2.65      1.500          1.099
            9     82       0.04 URBAN LAND         D           100.00   0.16   0.00   1.00    2.21      1.500          1.099
            9     83       0.18 FAGASA             C           100.00   0.16   0.10   1.00    3.06     97.200         71.232
            9     84       0.11 FAGASA             C           840.00   0.16   0.10   1.00    8.65     97.200         71.232
            9     85       0.01 URBAN LAND         D           150.00   0.16   0.00   1.00    1.63      1.500          1.099
            9     86       0.10 FAGASA             C           840.00   0.16   0.10   1.00    1.65     97.200         71.232
            9     87       8.35 FAGASA             C           840.00   0.16   0.10   1.00    8.65     97.200         71.232
            9     88       0.14 URBAN LAND         D           150.00   0.16   0.00   1.00    2.07      1.500          1.099
            9     89       0.43 FAGASA             C           840.00   0.16   0.10   1.00    4.34     97.200         71.232
            9     90       0.02 URBAN LAND         D           150.00   0.16   0.00   1.00    2.55      1.500          1.099
           10     91       0.06 FAGASA             C           840.00   0.16   0.10   1.00    7.39     97.200         71.232
           10     92       0.08 URBAN LAND         D           150.00   0.16   0.00   1.00    2.51      1.500          1.099
           10     93       0.10 URBAN LAND         D           150.00   0.16   0.00   1.00    0.40      1.500          1.099
           10     94       1.76 URBAN LAND         D           150.00   0.16   0.00   1.00    2.76      1.500          1.099
           10     95       3.60 FAGASA             C           840.00   0.16   0.10   1.00    6.10     97.200         71.232
           10     96       0.65 URBAN LAND         D           150.00   0.16   0.00   1.00    1.87      1.500          1.099
           10     97       0.33 FAGASA             C           840.00   0.16   0.10   1.00    3.30     97.200         71.232
           10     98       0.03 URBAN LAND         D           150.00   0.16   0.00   1.00    0.42      1.500          1.099
           10     99       0.12 URBAN LAND         D           150.00   0.16   0.00   1.00    1.28      1.500          1.099
           10    100       0.06 FAGASA             C           840.00   0.16   0.10   1.00    3.29     97.200         71.232
           11    101       0.24 AUA                B          1520.00   0.16   0.17   1.00    2.89    165.800        121.506
           11    102       0.53 URBAN LAND         D           150.00   0.16   0.00   1.00    2.56      1.500          1.099
           11    103       0.01 AUA                B          1520.00   0.16   0.17   1.00    4.10    165.800        121.506
           11    104       0.55 AUA                B          1520.00   0.16   0.17   1.00    3.99    165.800        121.506
           11    105       0.01 URBAN LAND         D           150.00   0.16   0.00   1.00    0.31      1.500          1.099
           11    106       0.70 URBAN LAND         D           150.00   0.16   0.00   1.00    2.56      1.500          1.099
           11    107       0.21 FAGASA             C           840.00   0.16   0.10   1.00   13.33     97.200         71.232
           11    108       0.06 AUA                B          1520.00   0.16   0.17   1.00    4.55    165.800        121.506
           11    109       0.06 URBAN LAND         D           150.00   0.16   0.00   1.00    2.54      1.500          1.099
           12    110       0.15 AUA                B          1520.00   0.16   0.17   1.00    2.82    165.800        121.506
           12    111       0.01 URBAN LAND         D           150.00   0.16   0.00   1.00    0.07      1.500          1.099
           12    112       0.01 URBAN LAND         D           150.00   0.16   0.00   1.00    0.21      1.500          1.099
           12    113       0.85 URBAN LAND         D           150.00   0.16   0.00   1.00    1.76      1.500          1.099
           12    114       0.01 FAGASA             C           840.00   0.16   0.10   1.00    0.10     97.200         71.232
           12    115       0.02 FAGASA             C           840.00   0.16   0.10   1.00    0.28     97.200         71.232
           12    116       2.04 FAGASA             C           840.00   0.16   0.10   1.00    5.01     97.200         71.232
           12    117       0.47 URBAN LAND         D           150.00   0.16   0.00   1.00    2.58      1.500          1.099
           12    118       0.01 FAGASA             C           840.00   0.16   0.10   1.00    0.28     97.200         71.232
           12    119       0.09 FAGASA             C           840.00   0.16   0.10   1.00    2.92     97.200         71.232
           12    120       0.12 URBAN LAND         D           150.00   0.16   0.00   1.00    2.65      1.500          1.099
           13    121       0.01 URBAN LAND         D           100.00   0.16   0.00   1.00    2.61      1.500          1.099
           13    122       0.27 URBAN LAND         D           100.00   0.16   0.00   1.00    0.30      1.500          1.099
           13    123       1.00 URBAN LAND         D           100.00   0.16   0.00   1.00    1.69      1.500          1.099
           13    124       0.12 FAGASA             C           100.00   0.16   0.10   1.00    3.52     97.200         71.232
           13    125       0.01 URBAN LAND         D           150.00   0.16   0.00   1.00    0.15      1.500          1.099
           13    126       0.38 URBAN LAND         D           150.00   0.16   0.00   1.00    0.33      1.500          1.099
           13    127       2.34 URBAN LAND         D           150.00   0.16   0.00   1.00    1.71      1.500          1.099
           13    128       0.01 FAGASA             C           840.00   0.16   0.10   1.00    0.07     97.200         71.232
           13    129      10.96 FAGASA             C           840.00   0.16   0.10   1.00    8.12     97.200         71.232
           13    130       0.55 FAGASA             C           840.00   0.16   0.10   1.00    3.42     97.200         71.232
           13    131       0.08 URBAN LAND         D           150.00   0.16   0.00   1.00    0.38      1.500          1.099
           13    132       0.16 URBAN LAND         D           150.00   0.16   0.00   1.00    1.65      1.500          1.099
           14    133       0.02 URBAN LAND         D           150.00   0.16   0.00   1.00    0.44      1.500          1.099
           14    134       0.28 URBAN LAND         D           150.00   0.16   0.00   1.00    0.85      1.500          1.099
           14    135       0.06 URBAN LAND         D           150.00   0.16   0.00   1.00    0.36      1.500          1.099
           14    136       0.16 URBAN LAND         D           150.00   0.16   0.00   1.00    0.85      1.500          1.099
           14    137       0.02 URBAN LAND         D           150.00   0.16   0.00   1.00    0.36      1.500          1.099
           14    138       0.09 URBAN LAND         D           150.00   0.16   0.00   1.00    0.82      1.500          1.099
           15    139       0.02 FAGASA             C           840.00   0.16   0.10   1.00    8.62     97.200         71.232
           15    140       0.01 URBAN LAND         D           150.00   0.16   0.00   1.00    0.40      1.500          1.099
           15    141       0.19 URBAN LAND         D           150.00   0.16   0.00   1.00    1.00      1.500          1.099
           15    142       0.26 FAGASA             C           840.00   0.16   0.10   1.00    2.12     97.200         71.232
           15    143       0.13 URBAN LAND         D           150.00   0.16   0.00   1.00    0.89      1.500          1.099
           15    144       0.45 FAGASA             C           840.00   0.16   0.10   1.00    4.82     97.200         71.232
           15    145       0.02 FAGASA             C           840.00   0.16   0.10   1.00    2.01     97.200         71.232
           15    146       0.02 URBAN LAND         D           150.00   0.16   0.00   1.00    0.90      1.500          1.099

         HRU Input Summary Table 3:
          Sub   HRU   Area(ha) Urban Irrig DrainTiles Pothole Pstcide Biomix Septic
            1      1       0.01                                          0.20 x
            1      2      10.17                                          0.20 x
            1      3       0.21                                          0.20 x
            1      4       0.01                                          0.20 x
            1      5       0.01                                          0.20 x
            1      6       0.08                                          0.20 x
            1      7       0.03                                          0.20 x
            2      8       0.03                                          0.20 x
            2      9       0.26                                          0.20 x
            2     10       0.02                                          0.20 x
            2     11       0.06                                          0.20 x
            2     12       0.06                                          0.20 x
            2     13       0.04                                          0.20 x
            2     14       0.06                                          0.20 x
            2     15       0.03                                          0.20 x
            2     16       0.33                                          0.20 x
            2     17       0.01                                          0.20 x
            2     18       0.01                                          0.20 x
            2     19      10.76                                          0.20 x
            2     20       0.15                                          0.20 x
            2     21       0.12                                          0.20 x
            3     22       2.91                                          0.20 x
            3     23       7.82                                          0.20 x
            3     24       2.40                                          0.20 x
            3     25       0.07                                          0.20 x
            3     26       1.28                                          0.20 x
            3     27       0.47                                          0.20 x
            3     28       0.01                                          0.20 x
            4     29       0.52                                          0.20 x
            4     30       0.42                                          0.20 x
            4     31       0.36                                          0.20 x
            4     32       0.36                                          0.20 x
            4     33       0.03                                          0.20 x
            4     34       0.17                                          0.20 x
            4     35       0.07                                          0.20 x
            4     36       0.06                                          0.20 x
            4     37       0.09                                          0.20 x
            4     38       0.01                                          0.20 x
            4     39       4.85                                          0.20 x
            4     40       0.01                                          0.20 x
            4     41       0.04                                          0.20 x
            4     42       1.94                                          0.20 x
            4     43      11.31                                          0.20 x
            4     44       0.25                                          0.20 x
            4     45       0.09                                          0.20 x
            4     46       0.16                                          0.20 x
            4     47       0.24                                          0.20 x
            5     48       0.03                                          0.20 x
            5     49       0.02                                          0.20 x
            5     50      12.68                                          0.20 x
            5     51       0.02                                          0.20 x
            6     52       0.13                                          0.20 x
            6     53      26.57                                          0.20 x
            6     54       0.01                                          0.20 x
            7     55       0.27                                          0.20 x
            7     56       0.60                                          0.20 x
            7     57       0.30                                          0.20 x
            7     58       0.01                                          0.20 x
            7     59      12.78                                          0.20 x
            7     60       0.01                                          0.20 x
            7     61       0.51                                          0.20 x
            7     62       0.15                                          0.20 x
            7     63       0.35                                          0.20 x
            7     64       0.13                                          0.20 x
            7     65       0.02                                          0.20 x
            7     66       0.22                                          0.20 x
            7     67       0.01                                          0.20 x
            8     68       0.04                                          0.20 x
            8     69       0.06                                          0.20 x
            8     70       0.01                                          0.20 x
            8     71       5.14                                          0.20 x
            8     72       0.14                                          0.20 x
            8     73       0.01                                          0.20 x
            8     74      46.33                                          0.20 x
            8     75       0.08                                          0.20 x
            8     76       0.01                                          0.20 x
            8     77       1.32                                          0.20 x
            8     78       0.02                                          0.20 x
            8     79       0.22                                          0.20 x
            9     80       0.40                                          0.20 x
            9     81       0.07                                          0.20 x
            9     82       0.04                                          0.20 x
            9     83       0.18                                          0.20 x
            9     84       0.11                                          0.20 x
            9     85       0.01                                          0.20 x
            9     86       0.10                                          0.20 x
            9     87       8.35                                          0.20 x
            9     88       0.14                                          0.20 x
            9     89       0.43                                          0.20 x
            9     90       0.02                                          0.20 x
           10     91       0.06                                          0.20 x
           10     92       0.08                                          0.20 x
           10     93       0.10                                          0.20 x
           10     94       1.76                                          0.20 x
           10     95       3.60                                          0.20 x
           10     96       0.65                                          0.20 x
           10     97       0.33                                          0.20 x
           10     98       0.03                                          0.20 x
           10     99       0.12                                          0.20 x
           10    100       0.06                                          0.20 x
           11    101       0.24                                          0.20 x
           11    102       0.53                                          0.20 x
           11    103       0.01                                          0.20 x
           11    104       0.55                                          0.20 x
           11    105       0.01                                          0.20 x
           11    106       0.70                                          0.20 x
           11    107       0.21                                          0.20 x
           11    108       0.06                                          0.20 x
           11    109       0.06                                          0.20 x
           12    110       0.15                                          0.20 x
           12    111       0.01                                          0.20 x
           12    112       0.01                                          0.20 x
           12    113       0.85                                          0.20 x
           12    114       0.01                                          0.20 x
           12    115       0.02                                          0.20 x
           12    116       2.04                                          0.20 x
           12    117       0.47                                          0.20 x
           12    118       0.01                                          0.20 x
           12    119       0.09                                          0.20 x
           12    120       0.12                                          0.20 x
           13    121       0.01                                          0.20 x
           13    122       0.27                                          0.20 x
           13    123       1.00                                          0.20 x
           13    124       0.12                                          0.20 x
           13    125       0.01                                          0.20 x
           13    126       0.38                                          0.20 x
           13    127       2.34                                          0.20 x
           13    128       0.01                                          0.20 x
           13    129      10.96                                          0.20 x
           13    130       0.55                                          0.20 x
           13    131       0.08                                          0.20 x
           13    132       0.16                                          0.20 x
           14    133       0.02                                          0.20 x
           14    134       0.28                                          0.20 x
           14    135       0.06                                          0.20 x
           14    136       0.16                                          0.20 x
           14    137       0.02                                          0.20 x
           14    138       0.09                                          0.20 x
           15    139       0.02                                          0.20 x
           15    140       0.01                                          0.20 x
           15    141       0.19                                          0.20 x
           15    142       0.26                                          0.20 x
           15    143       0.13                                          0.20 x
           15    144       0.45                                          0.20 x
           15    145       0.02                                          0.20 x
           15    146       0.02                                          0.20 x

         HRU Input Summary Table 4 (Groundwater):
          Sub   HRU   Area(ha) GWdelay(days), GWalpha(days) GWQmin(mm) GWrevap Revapmin(mm) Deepfr NO3(ppm) SolP(ppm)
            1      1       0.01        31.000         0.048   1000.000   0.020      750.000  0.050    0.000     0.000
            1      2      10.17        31.000         0.048   1000.000   0.020      750.000  0.050    0.000     0.000
            1      3       0.21        31.000         0.048   1000.000   0.020      750.000  0.050    0.000     0.000
            1      4       0.01        31.000         0.048   1000.000   0.020      750.000  0.050    0.000     0.000
            1      5       0.01        31.000         0.048   1000.000   0.020      750.000  0.050    0.000     0.000
            1      6       0.08        31.000         0.048   1000.000   0.020      750.000  0.050    0.000     0.000
            1      7       0.03        31.000         0.048   1000.000   0.020      750.000  0.050    0.000     0.000
            2      8       0.03        31.000         0.048   1000.000   0.020      750.000  0.050    0.000     0.000
            2      9       0.26        31.000         0.048   1000.000   0.020      750.000  0.050    0.000     0.000
            2     10       0.02        31.000         0.048   1000.000   0.020      750.000  0.050    0.000     0.000
            2     11       0.06        31.000         0.048   1000.000   0.020      750.000  0.050    0.000     0.000
            2     12       0.06        31.000         0.048   1000.000   0.020      750.000  0.050    0.000     0.000
            2     13       0.04        31.000         0.048   1000.000   0.020      750.000  0.050    0.000     0.000
            2     14       0.06        31.000         0.048   1000.000   0.020      750.000  0.050    0.000     0.000
            2     15       0.03        31.000         0.048   1000.000   0.020      750.000  0.050    0.000     0.000
            2     16       0.33        31.000         0.048   1000.000   0.020      750.000  0.050    0.000     0.000
            2     17       0.01        31.000         0.048   1000.000   0.020      750.000  0.050    0.000     0.000
            2     18       0.01        31.000         0.048   1000.000   0.020      750.000  0.050    0.000     0.000
            2     19      10.76        31.000         0.048   1000.000   0.020      750.000  0.050    0.000     0.000
            2     20       0.15        31.000         0.048   1000.000   0.020      750.000  0.050    0.000     0.000
            2     21       0.12        31.000         0.048   1000.000   0.020      750.000  0.050    0.000     0.000
            3     22       2.91        31.000         0.048   1000.000   0.020      750.000  0.050    0.000     0.000
            3     23       7.82        31.000         0.048   1000.000   0.020      750.000  0.050    0.000     0.000
            3     24       2.40        31.000         0.048   1000.000   0.020      750.000  0.050    0.000     0.000
            3     25       0.07        31.000         0.048   1000.000   0.020      750.000  0.050    0.000     0.000
            3     26       1.28        31.000         0.048   1000.000   0.020      750.000  0.050    0.000     0.000
            3     27       0.47        31.000         0.048   1000.000   0.020      750.000  0.050    0.000     0.000
            3     28       0.01        31.000         0.048   1000.000   0.020      750.000  0.050    0.000     0.000
            4     29       0.52        31.000         0.048   1000.000   0.020      750.000  0.050    0.000     0.000
            4     30       0.42        31.000         0.048   1000.000   0.020      750.000  0.050    0.000     0.000
            4     31       0.36        31.000         0.048   1000.000   0.020      750.000  0.050    0.000     0.000
            4     32       0.36        31.000         0.048   1000.000   0.020      750.000  0.050    0.000     0.000
            4     33       0.03        31.000         0.048   1000.000   0.020      750.000  0.050    0.000     0.000
            4     34       0.17        31.000         0.048   1000.000   0.020      750.000  0.050    0.000     0.000
            4     35       0.07        31.000         0.048   1000.000   0.020      750.000  0.050    0.000     0.000
            4     36       0.06        31.000         0.048   1000.000   0.020      750.000  0.050    0.000     0.000
            4     37       0.09        31.000         0.048   1000.000   0.020      750.000  0.050    0.000     0.000
            4     38       0.01        31.000         0.048   1000.000   0.020      750.000  0.050    0.000     0.000
            4     39       4.85        31.000         0.048   1000.000   0.020      750.000  0.050    0.000     0.000
            4     40       0.01        31.000         0.048   1000.000   0.020      750.000  0.050    0.000     0.000
            4     41       0.04        31.000         0.048   1000.000   0.020      750.000  0.050    0.000     0.000
            4     42       1.94        31.000         0.048   1000.000   0.020      750.000  0.050    0.000     0.000
            4     43      11.31        31.000         0.048   1000.000   0.020      750.000  0.050    0.000     0.000
            4     44       0.25        31.000         0.048   1000.000   0.020      750.000  0.050    0.000     0.000
            4     45       0.09        31.000         0.048   1000.000   0.020      750.000  0.050    0.000     0.000
            4     46       0.16        31.000         0.048   1000.000   0.020      750.000  0.050    0.000     0.000
            4     47       0.24        31.000         0.048   1000.000   0.020      750.000  0.050    0.000     0.000
            5     48       0.03        31.000         0.048   1000.000   0.020      750.000  0.050    0.000     0.000
            5     49       0.02        31.000         0.048   1000.000   0.020      750.000  0.050    0.000     0.000
            5     50      12.68        31.000         0.048   1000.000   0.020      750.000  0.050    0.000     0.000
            5     51       0.02        31.000         0.048   1000.000   0.020      750.000  0.050    0.000     0.000
            6     52       0.13        31.000         0.048   1000.000   0.020      750.000  0.050    0.000     0.000
            6     53      26.57        31.000         0.048   1000.000   0.020      750.000  0.050    0.000     0.000
            6     54       0.01        31.000         0.048   1000.000   0.020      750.000  0.050    0.000     0.000
            7     55       0.27        31.000         0.048   1000.000   0.020      750.000  0.050    0.000     0.000
            7     56       0.60        31.000         0.048   1000.000   0.020      750.000  0.050    0.000     0.000
            7     57       0.30        31.000         0.048   1000.000   0.020      750.000  0.050    0.000     0.000
            7     58       0.01        31.000         0.048   1000.000   0.020      750.000  0.050    0.000     0.000
            7     59      12.78        31.000         0.048   1000.000   0.020      750.000  0.050    0.000     0.000
            7     60       0.01        31.000         0.048   1000.000   0.020      750.000  0.050    0.000     0.000
            7     61       0.51        31.000         0.048   1000.000   0.020      750.000  0.050    0.000     0.000
            7     62       0.15        31.000         0.048   1000.000   0.020      750.000  0.050    0.000     0.000
            7     63       0.35        31.000         0.048   1000.000   0.020      750.000  0.050    0.000     0.000
            7     64       0.13        31.000         0.048   1000.000   0.020      750.000  0.050    0.000     0.000
            7     65       0.02        31.000         0.048   1000.000   0.020      750.000  0.050    0.000     0.000
            7     66       0.22        31.000         0.048   1000.000   0.020      750.000  0.050    0.000     0.000
            7     67       0.01        31.000         0.048   1000.000   0.020      750.000  0.050    0.000     0.000
            8     68       0.04        31.000         0.048   1000.000   0.020      750.000  0.050    0.000     0.000
            8     69       0.06        31.000         0.048   1000.000   0.020      750.000  0.050    0.000     0.000
            8     70       0.01        31.000         0.048   1000.000   0.020      750.000  0.050    0.000     0.000
            8     71       5.14        31.000         0.048   1000.000   0.020      750.000  0.050    0.000     0.000
            8     72       0.14        31.000         0.048   1000.000   0.020      750.000  0.050    0.000     0.000
            8     73       0.01        31.000         0.048   1000.000   0.020      750.000  0.050    0.000     0.000
            8     74      46.33        31.000         0.048   1000.000   0.020      750.000  0.050    0.000     0.000
            8     75       0.08        31.000         0.048   1000.000   0.020      750.000  0.050    0.000     0.000
            8     76       0.01        31.000         0.048   1000.000   0.020      750.000  0.050    0.000     0.000
            8     77       1.32        31.000         0.048   1000.000   0.020      750.000  0.050    0.000     0.000
            8     78       0.02        31.000         0.048   1000.000   0.020      750.000  0.050    0.000     0.000
            8     79       0.22        31.000         0.048   1000.000   0.020      750.000  0.050    0.000     0.000
            9     80       0.40        31.000         0.048   1000.000   0.020      750.000  0.050    0.000     0.000
            9     81       0.07        31.000         0.048   1000.000   0.020      750.000  0.050    0.000     0.000
            9     82       0.04        31.000         0.048   1000.000   0.020      750.000  0.050    0.000     0.000
            9     83       0.18        31.000         0.048   1000.000   0.020      750.000  0.050    0.000     0.000
            9     84       0.11        31.000         0.048   1000.000   0.020      750.000  0.050    0.000     0.000
            9     85       0.01        31.000         0.048   1000.000   0.020      750.000  0.050    0.000     0.000
            9     86       0.10        31.000         0.048   1000.000   0.020      750.000  0.050    0.000     0.000
            9     87       8.35        31.000         0.048   1000.000   0.020      750.000  0.050    0.000     0.000
            9     88       0.14        31.000         0.048   1000.000   0.020      750.000  0.050    0.000     0.000
            9     89       0.43        31.000         0.048   1000.000   0.020      750.000  0.050    0.000     0.000
            9     90       0.02        31.000         0.048   1000.000   0.020      750.000  0.050    0.000     0.000
           10     91       0.06        31.000         0.048   1000.000   0.020      750.000  0.050    0.000     0.000
           10     92       0.08        31.000         0.048   1000.000   0.020      750.000  0.050    0.000     0.000
           10     93       0.10        31.000         0.048   1000.000   0.020      750.000  0.050    0.000     0.000
           10     94       1.76        31.000         0.048   1000.000   0.020      750.000  0.050    0.000     0.000
           10     95       3.60        31.000         0.048   1000.000   0.020      750.000  0.050    0.000     0.000
           10     96       0.65        31.000         0.048   1000.000   0.020      750.000  0.050    0.000     0.000
           10     97       0.33        31.000         0.048   1000.000   0.020      750.000  0.050    0.000     0.000
           10     98       0.03        31.000         0.048   1000.000   0.020      750.000  0.050    0.000     0.000
           10     99       0.12        31.000         0.048   1000.000   0.020      750.000  0.050    0.000     0.000
           10    100       0.06        31.000         0.048   1000.000   0.020      750.000  0.050    0.000     0.000
           11    101       0.24        31.000         0.048   1000.000   0.020      750.000  0.050    0.000     0.000
           11    102       0.53        31.000         0.048   1000.000   0.020      750.000  0.050    0.000     0.000
           11    103       0.01        31.000         0.048   1000.000   0.020      750.000  0.050    0.000     0.000
           11    104       0.55        31.000         0.048   1000.000   0.020      750.000  0.050    0.000     0.000
           11    105       0.01        31.000         0.048   1000.000   0.020      750.000  0.050    0.000     0.000
           11    106       0.70        31.000         0.048   1000.000   0.020      750.000  0.050    0.000     0.000
           11    107       0.21        31.000         0.048   1000.000   0.020      750.000  0.050    0.000     0.000
           11    108       0.06        31.000         0.048   1000.000   0.020      750.000  0.050    0.000     0.000
           11    109       0.06        31.000         0.048   1000.000   0.020      750.000  0.050    0.000     0.000
           12    110       0.15        31.000         0.048   1000.000   0.020      750.000  0.050    0.000     0.000
           12    111       0.01        31.000         0.048   1000.000   0.020      750.000  0.050    0.000     0.000
           12    112       0.01        31.000         0.048   1000.000   0.020      750.000  0.050    0.000     0.000
           12    113       0.85        31.000         0.048   1000.000   0.020      750.000  0.050    0.000     0.000
           12    114       0.01        31.000         0.048   1000.000   0.020      750.000  0.050    0.000     0.000
           12    115       0.02        31.000         0.048   1000.000   0.020      750.000  0.050    0.000     0.000
           12    116       2.04        31.000         0.048   1000.000   0.020      750.000  0.050    0.000     0.000
           12    117       0.47        31.000         0.048   1000.000   0.020      750.000  0.050    0.000     0.000
           12    118       0.01        31.000         0.048   1000.000   0.020      750.000  0.050    0.000     0.000
           12    119       0.09        31.000         0.048   1000.000   0.020      750.000  0.050    0.000     0.000
           12    120       0.12        31.000         0.048   1000.000   0.020      750.000  0.050    0.000     0.000
           13    121       0.01        31.000         0.048   1000.000   0.020      750.000  0.050    0.000     0.000
           13    122       0.27        31.000         0.048   1000.000   0.020      750.000  0.050    0.000     0.000
           13    123       1.00        31.000         0.048   1000.000   0.020      750.000  0.050    0.000     0.000
           13    124       0.12        31.000         0.048   1000.000   0.020      750.000  0.050    0.000     0.000
           13    125       0.01        31.000         0.048   1000.000   0.020      750.000  0.050    0.000     0.000
           13    126       0.38        31.000         0.048   1000.000   0.020      750.000  0.050    0.000     0.000
           13    127       2.34        31.000         0.048   1000.000   0.020      750.000  0.050    0.000     0.000
           13    128       0.01        31.000         0.048   1000.000   0.020      750.000  0.050    0.000     0.000
           13    129      10.96        31.000         0.048   1000.000   0.020      750.000  0.050    0.000     0.000
           13    130       0.55        31.000         0.048   1000.000   0.020      750.000  0.050    0.000     0.000
           13    131       0.08        31.000         0.048   1000.000   0.020      750.000  0.050    0.000     0.000
           13    132       0.16        31.000         0.048   1000.000   0.020      750.000  0.050    0.000     0.000
           14    133       0.02        31.000         0.048   1000.000   0.020      750.000  0.050    0.000     0.000
           14    134       0.28        31.000         0.048   1000.000   0.020      750.000  0.050    0.000     0.000
           14    135       0.06        31.000         0.048   1000.000   0.020      750.000  0.050    0.000     0.000
           14    136       0.16        31.000         0.048   1000.000   0.020      750.000  0.050    0.000     0.000
           14    137       0.02        31.000         0.048   1000.000   0.020      750.000  0.050    0.000     0.000
           14    138       0.09        31.000         0.048   1000.000   0.020      750.000  0.050    0.000     0.000
           15    139       0.02        31.000         0.048   1000.000   0.020      750.000  0.050    0.000     0.000
           15    140       0.01        31.000         0.048   1000.000   0.020      750.000  0.050    0.000     0.000
           15    141       0.19        31.000         0.048   1000.000   0.020      750.000  0.050    0.000     0.000
           15    142       0.26        31.000         0.048   1000.000   0.020      750.000  0.050    0.000     0.000
           15    143       0.13        31.000         0.048   1000.000   0.020      750.000  0.050    0.000     0.000
           15    144       0.45        31.000         0.048   1000.000   0.020      750.000  0.050    0.000     0.000
           15    145       0.02        31.000         0.048   1000.000   0.020      750.000  0.050    0.000     0.000
           15    146       0.02        31.000         0.048   1000.000   0.020      750.000  0.050    0.000     0.000

         Tributary/Main Channel Characteristics
              |--------------Tributary--------------------|---------------------Main---------------------------|
          Sub  Length(km) Slope Width(m) Cond(mm/hr)     N Length(km) Slope Width(m) Depth(m) Cond(mm/hr)     N
            1        0.96 0.314     0.33      0.0000 0.014       0.30 0.093     0.33     0.05      0.0000 0.014
            2        0.89 0.378     0.36      0.0000 0.014       0.07 0.100     0.36     0.06      0.0000 0.014
            3        0.94 0.297     0.41      0.0000 0.014       0.26 0.081     0.41     0.06      0.0000 0.014
            4        0.86 0.324     0.51      0.0000 0.014       0.09 0.067     0.51     0.07      0.0000 0.014
            5        0.69 0.282     0.38      0.0000 0.014       0.22 0.167     0.38     0.06      0.0000 0.014
            6        0.93 0.389     0.58      0.0000 0.014       0.29 0.167     0.58     0.08      0.0000 0.014
            7        1.28 0.317     0.42      0.0000 0.014       0.63 0.190     0.42     0.06      0.0000 0.014
            8        1.50 0.274     0.88      0.0000 0.014       1.06 0.213     0.88     0.10      0.0000 0.014
            9        0.55 0.237     0.32      0.0000 0.014       0.23 0.097     0.84     0.10      0.0000 0.014
           10        0.54 0.208     0.26      0.0000 0.014       0.34 0.060     1.02     0.11      0.0000 0.014
           11        0.73 0.236     0.14      0.0000 0.014       0.11 0.055     0.73     0.09      0.0000 0.014
           12        0.43 0.188     0.18      0.0000 0.014       0.27 0.088     1.26     0.13      0.0000 0.014
           13        1.03 0.301     0.43      0.0000 0.014       0.19 0.020     1.49     0.14      0.0000 0.014
           14        0.23 0.035     0.06      0.0000 0.014       0.08 0.037     1.56     0.15      0.0000 0.014
           15        0.27 0.191     0.09      0.0000 0.014       0.10 0.052     2.00     0.17      0.0000 0.014
