1
    SWAT Dec 23 2016    VER 2016/Rev 664                                                                 0/ 0/   0      0: 0: 0

    General Input/Output section (file.cio):                                        
    2/7/2020 21:54:14 QSWAT Workflow v1.5.2                                         
                                                                                    


       SUB      GIS  MON   AREAkm2  PRECIPmm SNOMELTmm     PETmm      ETmm      SWmm    PERCmm    SURQmm    GW_Qmm    WYLDmm  SYLDt/ha ORGNkg/ha ORGPkg/haNSURQkg/ha SOLPkg/ha SEDPkg/ha LAT Q(mm)LATNO3kg/hGWNO3kg/haCHOLAmic/LCBODU mg/L DOXQ mg/L TNO3kg/ha   QTILEmm TVAPkg/ha
BIGSUB   1        0    1.10517E+00   576.600     0.000   117.354    87.718    93.827     6.776   171.161     0.059   462.339    16.231    27.726     3.386     0.005     0.010     2.727   291.054     0.406     0.000 .00000E+00 0.000E+00 0.000E+00 0.000E+00 0.000E+00 0.000E+00
BIGSUB   2        0    1.11953E+00   576.600     0.000   117.324    87.912    91.914     8.869   184.638     0.412   460.567    11.680    24.499     2.993     0.011     0.013     2.403   275.419     0.401     0.000 .00000E+00 0.000E+00 0.000E+00 0.000E+00 0.000E+00 0.000E+00
BIGSUB   3        0    1.14970E+00   576.600     0.000   117.316    92.608    91.584    16.845   222.257     5.769   451.915     9.046    17.299     2.112     0.003     0.026     1.689   223.611     0.307     0.001 .00000E+00 0.000E+00 0.000E+00 0.000E+00 0.000E+00 0.000E+00
BIGSUB   4        0    1.20992E+00   576.600     0.000   117.963    90.568   108.117    30.725   181.840    12.655   449.278     9.660    19.282     2.356     0.006     0.019     1.873   254.233     0.364     0.003 .00000E+00 0.000E+00 0.000E+00 0.000E+00 0.000E+00 0.000E+00
BIGSUB   5        0    1.12754E+00   576.600     0.000   117.340    87.581    96.086    11.392   162.609     0.546   458.935    11.448    25.437     3.107     0.005     0.009     2.492   295.638     0.425     0.000 .00000E+00 0.000E+00 0.000E+00 0.000E+00 0.000E+00 0.000E+00
BIGSUB   6        0    1.26718E+00   576.600     0.000   117.363    87.331    96.088     7.565   161.839     0.438   462.335    18.893    29.464     3.598     0.005     0.008     2.901   299.979     0.420     0.000 .00000E+00 0.000E+00 0.000E+00 0.000E+00 0.000E+00 0.000E+00
BIGSUB   7        0    1.15360E+00   576.600     0.000   117.383    88.123    95.971    17.070   177.822     5.651   457.412    17.110    25.547     3.120     0.009     0.015     2.513   273.655     0.402     0.002 .00000E+00 0.000E+00 0.000E+00 0.000E+00 0.000E+00 0.000E+00
BIGSUB   8        0    1.53384E+00   576.600     0.000   117.371    87.787   104.467    24.443   160.907     9.143   454.117    18.112    27.880     3.404     0.006     0.009     2.741   283.634     0.401     0.004 .00000E+00 0.000E+00 0.000E+00 0.000E+00 0.000E+00 0.000E+00
BIGSUB   9        0    1.98704E-01   576.600     0.000   117.312    87.698    94.098    13.218   189.595     1.943   458.899    10.714    23.391     2.859     0.010     0.014     2.291   267.193     0.407     0.001 .00000E+00 0.000E+00 0.000E+00 0.000E+00 0.000E+00 0.000E+00
BIGSUB  10        0    1.68026E-01   576.600     0.000   117.288    94.930    69.300    16.406   277.958     5.021   450.436     4.196    12.844     1.569     0.017     0.036     1.251   167.179     0.263     0.001 .00000E+00 0.000E+00 0.000E+00 0.000E+00 0.000E+00 0.000E+00
BIGSUB  11        0    1.23701E-01   576.600     0.000   117.306    98.779    84.117    62.047   297.110    30.293   426.926     1.486     6.221     0.760     0.002     0.046     0.582    98.245     0.126     0.012 .00000E+00 0.000E+00 0.000E+00 0.000E+00 0.000E+00 0.000E+00
BIGSUB  12        0    1.37963E-01   576.600     0.000   117.290    95.210    73.031    28.923   268.997    11.449   445.105     3.278    11.817     1.444     0.003     0.035     1.145   164.115     0.251     0.003 .00000E+00 0.000E+00 0.000E+00 0.000E+00 0.000E+00 0.000E+00
BIGSUB  13        0    1.15893E+00   576.600     0.000   117.310    90.839    77.144     9.462   244.486     0.534   457.471     7.820    17.662     2.158     0.006     0.028     1.730   212.333     0.310     0.000 .00000E+00 0.000E+00 0.000E+00 0.000E+00 0.000E+00 0.000E+00
BIGSUB  14        0    1.63610E-02   576.600     0.000   117.277   104.296    31.674     3.334   443.210     0.000   443.270     0.000     0.000     0.000     0.003     0.072     0.000     0.000     0.000     0.000 .00000E+00 0.000E+00 0.000E+00 0.000E+00 0.000E+00 0.000E+00
BIGSUB  15        0    1.11081E-01   576.600     0.000   117.278    90.090    74.007    62.363   263.352    31.081   439.779     1.984     8.315     1.017     0.192     0.045     0.801   144.102     0.349     0.017 .00000E+00 0.000E+00 0.000E+00 0.000E+00 0.000E+00 0.000E+00
BIGSUB   1        0    2.10517E+00   144.700     0.000   106.801    67.781    46.084     2.524    44.827     0.065   131.970     8.188     6.864     0.838     0.000     0.002     0.677    86.982     0.119     0.000 .00000E+00 0.000E+00 0.000E+00 0.000E+00 0.000E+00 0.000E+00
BIGSUB   2        0    2.11953E+00   144.700     0.000   106.732    66.616    45.405     3.162    48.284     0.522   131.246     5.804     6.410     0.783     0.103     0.003     0.630    82.304     0.133     0.000 .00000E+00 0.000E+00 0.000E+00 0.000E+00 0.000E+00 0.000E+00
BIGSUB   3        0    2.14970E+00   144.700     0.000   106.715    64.369    47.415     5.131    60.306     6.895   134.064     4.592     4.607     0.562     0.000     0.006     0.449    66.542     0.086     0.002 .00000E+00 0.000E+00 0.000E+00 0.000E+00 0.000E+00 0.000E+00
BIGSUB   4        0    2.20992E+00   144.700     0.000   107.444    67.055    61.717     8.827    48.553    14.853   139.831     4.882     5.156     0.630     0.204     0.004     0.500    75.809     0.138     0.005 .00000E+00 0.000E+00 0.000E+00 0.000E+00 0.000E+00 0.000E+00
BIGSUB   5        0    2.12754E+00   144.700     0.000   106.768    68.481    47.599     3.903    42.289     0.599   131.446     5.753     6.802     0.831     0.000     0.002     0.668    88.374     0.121     0.000 .00000E+00 0.000E+00 0.000E+00 0.000E+00 0.000E+00 0.000E+00
BIGSUB   6        0    2.26718E+00   144.700     0.000   106.822    68.543    47.540     2.743    42.272     0.474   132.543     9.534     7.054     0.861     0.000     0.001     0.697    89.685     0.123     0.000 .00000E+00 0.000E+00 0.000E+00 0.000E+00 0.000E+00 0.000E+00
BIGSUB   7        0    2.15360E+00   144.700     0.000   106.867    67.157    48.797     5.146    46.760     6.322   135.666     8.635     6.050     0.739     0.001     0.003     0.597    82.256     0.116     0.002 .00000E+00 0.000E+00 0.000E+00 0.000E+00 0.000E+00 0.000E+00
BIGSUB   8        0    2.53384E+00   144.700     0.000   106.841    67.977    56.529     7.186    42.017    10.282   138.407     9.056     6.649     0.812     0.000     0.001     0.655    85.622     0.119     0.004 .00000E+00 0.000E+00 0.000E+00 0.000E+00 0.000E+00 0.000E+00
BIGSUB   9        0    2.98704E-01   144.700     0.000   106.705    65.671    48.396     4.622    48.863     2.682   132.054     5.249     6.129     0.749     0.211     0.003     0.601    80.291     0.154     0.002 .00000E+00 0.000E+00 0.000E+00 0.000E+00 0.000E+00 0.000E+00
BIGSUB  10        0    2.68026E-01   144.700     0.000   106.649    61.636    28.536     5.113    74.254     7.878   132.806     2.077     3.645     0.445     0.002     0.009     0.355    50.356     0.070     0.001 .00000E+00 0.000E+00 0.000E+00 0.000E+00 0.000E+00 0.000E+00
BIGSUB  11        0    2.23701E-01   144.700     0.000   106.692    59.973    45.804    16.709    80.097    34.039   147.196     0.765     2.077     0.254     0.000     0.012     0.193    31.697     0.033     0.014 .00000E+00 0.000E+00 0.000E+00 0.000E+00 0.000E+00 0.000E+00
BIGSUB  12        0    2.37963E-01   144.700     0.000   106.655    61.953    32.144     8.344    71.797    15.163   137.056     1.618     3.471     0.424     0.000     0.009     0.336    49.496     0.064     0.004 .00000E+00 0.000E+00 0.000E+00 0.000E+00 0.000E+00 0.000E+00
BIGSUB  13        0    2.15893E+00   144.700     0.000   106.701    62.096    35.323     3.240    64.820     0.703   129.192     3.907     4.728     0.578     0.000     0.007     0.464    63.515     0.088     0.000 .00000E+00 0.000E+00 0.000E+00 0.000E+00 0.000E+00 0.000E+00
BIGSUB  14        0    2.63610E-02   144.700     0.000   106.624    52.419     0.000     1.329   123.501     0.000   123.568     0.000     0.000     0.000     0.000     0.019     0.000     0.000     0.000     0.000 .00000E+00 0.000E+00 0.000E+00 0.000E+00 0.000E+00 0.000E+00
BIGSUB  15        0    2.11081E-01   144.700     0.000   106.627    63.385    31.206    16.892    68.690    35.244   150.488     0.977     2.475     0.303     0.024     0.010     0.238    45.201     0.090     0.023 .00000E+00 0.000E+00 0.000E+00 0.000E+00 0.000E+00 0.000E+00
BIGSUB   1        0    3.10517E+00    93.800     0.000   115.380    82.405    17.264     0.005     1.153     0.050    40.363     0.002     0.001     0.000     0.000     0.000     0.000    39.041     0.002     0.000 .00000E+00 0.000E+00 0.000E+00 0.000E+00 0.000E+00 0.000E+00
BIGSUB   2        0    3.11953E+00    93.800     0.000   115.295    81.149    18.369     0.010     2.573     0.369    40.194     0.073     0.035     0.004     0.027     0.000     0.004    37.089     0.031     0.000 .00000E+00 0.000E+00 0.000E+00 0.000E+00 0.000E+00 0.000E+00
BIGSUB   3        0    3.14970E+00    93.800     0.000   115.274    79.188    26.821     0.068     7.918     4.852    40.339     0.000     0.000     0.000     0.000     0.001     0.000    27.208     0.000     0.001 .00000E+00 0.000E+00 0.000E+00 0.000E+00 0.000E+00 0.000E+00
BIGSUB   4        0    3.20992E+00    93.800     0.000   116.129    83.026    38.234     0.030     4.031    11.420    46.862     0.001     0.001     0.000     0.005     0.001     0.000    30.730     0.054     0.002 .00000E+00 0.000E+00 0.000E+00 0.000E+00 0.000E+00 0.000E+00
BIGSUB   5        0    3.12754E+00    93.800     0.000   115.340    83.596    18.707     0.000     0.000     0.458    39.756     0.000     0.000     0.000     0.000     0.000     0.000    39.079     0.003     0.000 .00000E+00 0.000E+00 0.000E+00 0.000E+00 0.000E+00 0.000E+00
BIGSUB   6        0    3.26718E+00    93.800     0.000   115.406    83.281    17.837     0.000     0.000     0.363    40.705     0.000     0.000     0.000     0.000     0.000     0.000    40.206     0.006     0.000 .00000E+00 0.000E+00 0.000E+00 0.000E+00 0.000E+00 0.000E+00
BIGSUB   7        0    3.15360E+00    93.800     0.000   115.460    82.506    21.870     0.014     1.651     4.868    43.420     0.000     0.000     0.000     0.000     0.000     0.000    36.535     0.057     0.001 .00000E+00 0.000E+00 0.000E+00 0.000E+00 0.000E+00 0.000E+00
BIGSUB   8        0    3.53384E+00    93.800     0.000   115.428    82.752    29.451     0.001     1.111     8.111    46.749     0.073     0.034     0.004     0.000     0.000     0.004    36.988     0.006     0.002 .00000E+00 0.000E+00 0.000E+00 0.000E+00 0.000E+00 0.000E+00
BIGSUB   9        0    3.98704E-01    93.800     0.000   115.263    80.808    22.510     0.005     2.944     2.082    41.188     0.106     0.071     0.009     0.010     0.000     0.007    35.904     0.049     0.001 .00000E+00 0.000E+00 0.000E+00 0.000E+00 0.000E+00 0.000E+00
BIGSUB  10        0    3.68026E-01    93.800     0.000   115.195    76.897    13.221     0.113    11.128     5.096    37.545     0.000     0.000     0.000     0.089     0.002     0.000    20.963     0.027     0.000 .00000E+00 0.000E+00 0.000E+00 0.000E+00 0.000E+00 0.000E+00
BIGSUB  11        0    3.23701E-01    93.800     0.000   115.246    75.980    38.780     0.166    14.826    26.343    52.457     0.000     0.000     0.000     0.000     0.002     0.000     9.818     0.000     0.006 .00000E+00 0.000E+00 0.000E+00 0.000E+00 0.000E+00 0.000E+00
BIGSUB  12        0    3.37963E-01    93.800     0.000   115.202    78.027    17.553     0.114    10.478    10.417    41.310     0.000     0.000     0.000     0.000     0.002     0.000    19.756     0.000     0.001 .00000E+00 0.000E+00 0.000E+00 0.000E+00 0.000E+00 0.000E+00
BIGSUB  13        0    3.15893E+00    93.800     0.000   115.258    76.708    14.719     0.047     9.488     0.416    38.236     0.019     0.010     0.001     0.001     0.002     0.001    28.149     0.000     0.000 .00000E+00 0.000E+00 0.000E+00 0.000E+00 0.000E+00 0.000E+00
BIGSUB  14        0    3.63610E-02    93.800     0.000   115.164    64.895     0.100     0.247    28.558     0.000    28.635     0.000     0.000     0.000     0.000     0.005     0.000     0.000     0.000     0.000 .00000E+00 0.000E+00 0.000E+00 0.000E+00 0.000E+00 0.000E+00
BIGSUB  15        0    3.11081E-01    93.800     0.000   115.167    81.080    18.051     0.097     8.575    26.071    53.226     0.000     0.000     0.000     0.653     0.001     0.000    17.115     0.250     0.009 .00000E+00 0.000E+00 0.000E+00 0.000E+00 0.000E+00 0.000E+00
BIGSUB   1        0    4.10517E+00   238.900     0.000   112.383    56.113    45.117     0.037    31.468     0.018   139.973     0.030     0.031     0.004     0.001     0.001     0.003   108.386     0.026     0.000 .00000E+00 0.000E+00 0.000E+00 0.000E+00 0.000E+00 0.000E+00
BIGSUB   2        0    4.11953E+00   238.900     0.000   112.366    56.818    46.557     0.178    37.332     0.091   139.630     0.388     0.178     0.022     0.003     0.002     0.018   102.069     0.026     0.000 .00000E+00 0.000E+00 0.000E+00 0.000E+00 0.000E+00 0.000E+00
BIGSUB   3        0    4.14970E+00   238.900     0.000   112.362    64.196    62.677     0.494    49.077     0.735   127.167     0.012     0.017     0.002     0.001     0.006     0.002    77.059     0.019     0.000 .00000E+00 0.000E+00 0.000E+00 0.000E+00 0.000E+00 0.000E+00
BIGSUB   4        0    4.20992E+00   238.900     0.000   113.024    67.130    70.743     0.320    40.998     2.051   129.285     0.039     0.054     0.007     0.001     0.004     0.004    85.683     0.022     0.000 .00000E+00 0.000E+00 0.000E+00 0.000E+00 0.000E+00 0.000E+00
BIGSUB   5        0    4.12754E+00   238.900     0.000   112.375    57.092    47.457     0.092    29.180     0.152   138.057     0.016     0.026     0.003     0.001     0.001     0.002   108.543     0.028     0.000 .00000E+00 0.000E+00 0.000E+00 0.000E+00 0.000E+00 0.000E+00
BIGSUB   6        0    4.26718E+00   238.900     0.000   112.388    55.996    45.583     0.002    28.096     0.135   139.983     0.024     0.027     0.003     0.001     0.000     0.002   111.638     0.027     0.000 .00000E+00 0.000E+00 0.000E+00 0.000E+00 0.000E+00 0.000E+00
BIGSUB   7        0    4.15360E+00   238.900     0.000   112.398    58.792    51.622     0.770    34.546     1.247   136.707     0.023     0.031     0.004     0.001     0.002     0.003   100.614     0.026     0.000 .00000E+00 0.000E+00 0.000E+00 0.000E+00 0.000E+00 0.000E+00
BIGSUB   8        0    4.53384E+00   238.900     0.000   112.392    59.025    59.609     0.152    32.365     2.046   137.220     0.426     0.177     0.022     0.001     0.001     0.018   102.371     0.025     0.000 .00000E+00 0.000E+00 0.000E+00 0.000E+00 0.000E+00 0.000E+00
BIGSUB   9        0    4.98704E-01   238.900     0.000   112.359    58.350    49.230     0.152    41.779     0.503   140.589     0.626     0.379     0.046     0.002     0.002     0.038    98.093     0.025     0.000 .00000E+00 0.000E+00 0.000E+00 0.000E+00 0.000E+00 0.000E+00
BIGSUB  10        0    4.68026E-01   238.900     0.000   112.346    62.782    55.719     0.722    63.298     0.399   122.191     0.008     0.020     0.002     0.004     0.008     0.002    58.202     0.018     0.000 .00000E+00 0.000E+00 0.000E+00 0.000E+00 0.000E+00 0.000E+00
BIGSUB  11        0    4.23701E-01   238.900     0.000   112.356    72.408    91.621     1.212    76.086     6.464   109.810     0.003     0.011     0.001     0.001     0.011     0.001    26.075     0.007     0.001 .00000E+00 0.000E+00 0.000E+00 0.000E+00 0.000E+00 0.000E+00
BIGSUB  12        0    4.37963E-01   238.900     0.000   112.347    64.333    61.561     1.658    61.997     1.629   119.583     0.007     0.017     0.002     0.001     0.008     0.002    55.424     0.017     0.000 .00000E+00 0.000E+00 0.000E+00 0.000E+00 0.000E+00 0.000E+00
BIGSUB  13        0    4.15893E+00   238.900     0.000   112.358    59.594    46.141     0.388    58.066     0.062   135.842     0.107     0.061     0.007     0.001     0.007     0.006    77.562     0.019     0.000 .00000E+00 0.000E+00 0.000E+00 0.000E+00 0.000E+00 0.000E+00
BIGSUB  14        0    4.63610E-02   238.900     0.000   112.340    64.452    57.105     1.779   109.679     0.000   109.744     0.000     0.000     0.000     0.000     0.018     0.000     0.000     0.000     0.000 .00000E+00 0.000E+00 0.000E+00 0.000E+00 0.000E+00 0.000E+00
BIGSUB  15        0    4.11081E-01   238.900     0.000   112.341    68.349    65.220     3.373    61.945     9.397   119.623     0.007     0.040     0.005     0.030     0.005     0.003    47.099     0.027     0.002 .00000E+00 0.000E+00 0.000E+00 0.000E+00 0.000E+00 0.000E+00
BIGSUB   1        0    5.10517E+00   134.700     0.000   133.612    73.508    40.182     0.051     3.522     0.002    80.385     0.003     0.002     0.000     0.000     0.000     0.000    76.779     0.051     0.000 .00000E+00 0.000E+00 0.000E+00 0.000E+00 0.000E+00 0.000E+00
BIGSUB   2        0    5.11953E+00   134.700     0.000   133.643    75.135    40.430     0.181     6.313     0.077    79.179     0.075     0.028     0.003     0.002     0.001     0.003    72.675     0.049     0.000 .00000E+00 0.000E+00 0.000E+00 0.000E+00 0.000E+00 0.000E+00
BIGSUB   3        0    5.14970E+00   134.700     0.000   133.651    84.859    47.255     0.725    20.245     0.044    75.329     0.001     0.001     0.000     0.000     0.003     0.000    54.795     0.037     0.000 .00000E+00 0.000E+00 0.000E+00 0.000E+00 0.000E+00 0.000E+00
BIGSUB   4        0    5.20992E+00   134.700     0.000   134.280    81.218    63.702     0.429    10.626     0.379    73.276     0.002     0.003     0.000     0.001     0.002     0.000    61.820     0.042     0.000 .00000E+00 0.000E+00 0.000E+00 0.000E+00 0.000E+00 0.000E+00
BIGSUB   5        0    5.12754E+00   134.700     0.000   133.627    73.413    44.275     0.074     1.678     0.085    79.128     0.001     0.002     0.000     0.000     0.000     0.000    77.216     0.054     0.000 .00000E+00 0.000E+00 0.000E+00 0.000E+00 0.000E+00 0.000E+00
BIGSUB   6        0    5.26718E+00   134.700     0.000   133.603    72.927    41.496     0.014     1.425     0.023    80.627     0.001     0.001     0.000     0.000     0.000     0.000    79.085     0.052     0.000 .00000E+00 0.000E+00 0.000E+00 0.000E+00 0.000E+00 0.000E+00
BIGSUB   7        0    5.15360E+00   134.700     0.000   133.583    77.456    44.121     1.026     5.403     0.856    78.297     0.001     0.001     0.000     0.000     0.001     0.000    71.788     0.046     0.000 .00000E+00 0.000E+00 0.000E+00 0.000E+00 0.000E+00 0.000E+00
BIGSUB   8        0    5.53384E+00   134.700     0.000   133.594    74.472    55.328     1.561     3.046     1.009    78.383     0.078     0.028     0.003     0.001     0.000     0.003    73.969     0.049     0.000 .00000E+00 0.000E+00 0.000E+00 0.000E+00 0.000E+00 0.000E+00
BIGSUB   9        0    5.98704E-01   134.700     0.000   133.655    76.183    44.210     0.126     6.294     0.160    76.798     0.116     0.066     0.008     0.001     0.000     0.007    70.169     0.047     0.000 .00000E+00 0.000E+00 0.000E+00 0.000E+00 0.000E+00 0.000E+00
BIGSUB  10        0    5.68026E-01   134.700     0.000   133.680    90.903    34.917     1.324    29.460     0.170    71.915     0.001     0.002     0.000     0.003     0.005     0.000    42.040     0.031     0.000 .00000E+00 0.000E+00 0.000E+00 0.000E+00 0.000E+00 0.000E+00
BIGSUB  11        0    5.23701E-01   134.700     0.000   133.661    99.753    64.450     5.511    39.062     2.768    65.732     0.000     0.001     0.000     0.001     0.006     0.000    22.925     0.017     0.000 .00000E+00 0.000E+00 0.000E+00 0.000E+00 0.000E+00 0.000E+00
BIGSUB  12        0    5.37963E-01   134.700     0.000   133.677    90.960    42.316     2.431    28.402     1.245    70.284     0.001     0.002     0.000     0.001     0.004     0.000    40.189     0.030     0.000 .00000E+00 0.000E+00 0.000E+00 0.000E+00 0.000E+00 0.000E+00
BIGSUB  13        0    5.15893E+00   134.700     0.000   133.657    81.366    34.127     0.517    20.115     0.029    75.511     0.020     0.009     0.001     0.001     0.003     0.001    55.238     0.037     0.000 .00000E+00 0.000E+00 0.000E+00 0.000E+00 0.000E+00 0.000E+00
BIGSUB  14        0    5.63610E-02   134.700     0.000   133.691   112.574     7.277     2.575    71.028     0.000    71.102     0.000     0.000     0.000     0.001     0.012     0.000     0.000     0.000     0.000 .00000E+00 0.000E+00 0.000E+00 0.000E+00 0.000E+00 0.000E+00
BIGSUB  15        0    5.11081E-01   134.700     0.000   133.690    97.797    47.539     2.941    24.534     3.704    63.997     0.001     0.004     0.000     0.035     0.002     0.000    34.779     0.033     0.000 .00000E+00 0.000E+00 0.000E+00 0.000E+00 0.000E+00 0.000E+00
BIGSUB   1        0    6.10517E+00   299.100     0.000    88.540    60.245    53.151     0.042    98.876     0.005   225.982     0.219     0.257     0.032     0.004     0.004     0.024   127.040     0.187     0.000 .00000E+00 0.000E+00 0.000E+00 0.000E+00 0.000E+00 0.000E+00
BIGSUB   2        0    6.11953E+00   299.100     0.000    88.633    60.806    53.700     0.179   105.639     0.098   225.099     0.647     0.378     0.047     0.005     0.005     0.036   119.275     0.177     0.000 .00000E+00 0.000E+00 0.000E+00 0.000E+00 0.000E+00 0.000E+00
BIGSUB   3        0    6.14970E+00   299.100     0.000    88.656    67.703    60.930     0.147   125.406     0.000   217.824     0.118     0.173     0.021     0.003     0.013     0.016    92.231     0.134     0.000 .00000E+00 0.000E+00 0.000E+00 0.000E+00 0.000E+00 0.000E+00
BIGSUB   4        0    6.20992E+00   299.100     0.000    88.864    64.280    79.090     3.496   112.627     0.616   217.128     0.180     0.258     0.032     0.004     0.010     0.023   103.543     0.154     0.000 .00000E+00 0.000E+00 0.000E+00 0.000E+00 0.000E+00 0.000E+00
BIGSUB   5        0    6.12754E+00   299.100     0.000    88.584    60.140    59.284     0.310    98.063     0.125   223.971     0.156     0.255     0.032     0.004     0.004     0.024   125.671     0.187     0.000 .00000E+00 0.000E+00 0.000E+00 0.000E+00 0.000E+00 0.000E+00
BIGSUB   6        0    6.26718E+00   299.100     0.000    88.511    59.695    54.875     0.269    94.923     0.055   225.954     0.241     0.265     0.033     0.004     0.003     0.025   130.906     0.193     0.000 .00000E+00 0.000E+00 0.000E+00 0.000E+00 0.000E+00 0.000E+00
BIGSUB   7        0    6.15360E+00   299.100     0.000    88.452    61.343    57.280     3.006   102.491     1.348   223.218     0.222     0.252     0.031     0.004     0.006     0.023   119.177     0.176     0.000 .00000E+00 0.000E+00 0.000E+00 0.000E+00 0.000E+00 0.000E+00
BIGSUB   8        0    6.53384E+00   299.100     0.000    88.487    60.656    67.488     5.375    99.034     2.072   223.373     0.768     0.393     0.048     0.004     0.004     0.038   121.976     0.180     0.000 .00000E+00 0.000E+00 0.000E+00 0.000E+00 0.000E+00 0.000E+00
BIGSUB   9        0    6.98704E-01   299.100     0.000    88.669    60.720    58.449     0.771   109.001     0.202   223.772     0.988     0.598     0.074     0.005     0.005     0.058   114.437     0.169     0.000 .00000E+00 0.000E+00 0.000E+00 0.000E+00 0.000E+00 0.000E+00
BIGSUB  10        0    6.68026E-01   299.100     0.000    88.743    70.764    45.534     1.599   150.348     0.372   216.775     0.082     0.194     0.024     0.004     0.017     0.018    65.860     0.103     0.000 .00000E+00 0.000E+00 0.000E+00 0.000E+00 0.000E+00 0.000E+00
BIGSUB  11        0    6.23701E-01   299.100     0.000    88.687    76.414    67.547    17.426   165.830     5.933   209.033     0.026     0.100     0.012     0.002     0.025     0.009    36.466     0.057     0.000 .00000E+00 0.000E+00 0.000E+00 0.000E+00 0.000E+00 0.000E+00
BIGSUB  12        0    6.37963E-01   299.100     0.000    88.736    71.470    53.755     4.562   150.159     1.999   214.090     0.071     0.191     0.023     0.002     0.018     0.018    61.568     0.093     0.000 .00000E+00 0.000E+00 0.000E+00 0.000E+00 0.000E+00 0.000E+00
BIGSUB  13        0    6.15893E+00   299.100     0.000    88.675    64.769    45.553     0.160   133.209     0.037   222.948     0.233     0.217     0.027     0.004     0.013     0.021    89.603     0.131     0.000 .00000E+00 0.000E+00 0.000E+00 0.000E+00 0.000E+00 0.000E+00
BIGSUB  14        0    6.63610E-02   299.100     0.000    88.777    85.224     6.621     0.530   213.990     0.000   214.067     0.000     0.000     0.000     0.001     0.035     0.000     0.000     0.000     0.000 .00000E+00 0.000E+00 0.000E+00 0.000E+00 0.000E+00 0.000E+00
BIGSUB  15        0    6.11081E-01   299.100     0.000    88.774    58.333    61.005    17.594   154.561     4.781   215.132     0.051     0.213     0.026     0.037     0.013     0.017    55.000     0.125     0.001 .00000E+00 0.000E+00 0.000E+00 0.000E+00 0.000E+00 0.000E+00
BIGSUB   1        0    7.10517E+00   248.800     0.000   103.035    73.109    63.242     0.063    16.625     0.020   165.848     0.044     0.057     0.007     0.001     0.001     0.005   149.154     0.197     0.000 .00000E+00 0.000E+00 0.000E+00 0.000E+00 0.000E+00 0.000E+00
BIGSUB   2        0    7.11953E+00   248.800     0.000   103.188    73.904    64.259     0.279    23.911     0.128   164.486     0.223     0.102     0.013     0.035     0.002     0.010   140.379     0.193     0.000 .00000E+00 0.000E+00 0.000E+00 0.000E+00 0.000E+00 0.000E+00
BIGSUB   3        0    7.14970E+00   248.800     0.000   103.226    80.892    66.606     3.951    49.675     0.159   158.755     0.022     0.035     0.004     0.001     0.007     0.003   108.767     0.147     0.000 .00000E+00 0.000E+00 0.000E+00 0.000E+00 0.000E+00 0.000E+00
BIGSUB   4        0    7.20992E+00   248.800     0.000   103.184    77.416    85.488     9.426    31.508     2.604   158.612     0.034     0.064     0.009     0.008     0.004     0.005   124.197     0.184     0.000 .00000E+00 0.000E+00 0.000E+00 0.000E+00 0.000E+00 0.000E+00
BIGSUB   5        0    7.12754E+00   248.800     0.000   103.107    73.255    71.725     0.448    14.811     0.220   163.203     0.036     0.069     0.008     0.002     0.001     0.007   148.084     0.195     0.000 .00000E+00 0.000E+00 0.000E+00 0.000E+00 0.000E+00 0.000E+00
BIGSUB   6        0    7.26718E+00   248.800     0.000   102.987    72.541    65.296     0.344    12.025     0.164   165.966     0.046     0.058     0.007     0.002     0.000     0.006   153.720     0.203     0.000 .00000E+00 0.000E+00 0.000E+00 0.000E+00 0.000E+00 0.000E+00
BIGSUB   7        0    7.15360E+00   248.800     0.000   102.889    74.368    66.411     4.405    20.765     2.073   163.368     0.042     0.054     0.007     0.002     0.002     0.005   140.344     0.193     0.000 .00000E+00 0.000E+00 0.000E+00 0.000E+00 0.000E+00 0.000E+00
BIGSUB   8        0    7.53384E+00   248.800     0.000   102.947    73.434    76.751     6.951    15.354     3.408   163.041     0.243     0.092     0.011     0.002     0.000     0.009   144.005     0.193     0.000 .00000E+00 0.000E+00 0.000E+00 0.000E+00 0.000E+00 0.000E+00
BIGSUB   9        0    7.98704E-01   248.800     0.000   103.247    74.048    69.453     1.747    26.661     0.514   162.850     0.343     0.189     0.025     0.015     0.002     0.018   135.562     0.201     0.000 .00000E+00 0.000E+00 0.000E+00 0.000E+00 0.000E+00 0.000E+00
BIGSUB  10        0    7.68026E-01   248.800     0.000   103.369    85.129    53.174     2.659    74.634     0.869   154.526     0.027     0.074     0.009     0.107     0.010     0.007    78.853     0.109     0.000 .00000E+00 0.000E+00 0.000E+00 0.000E+00 0.000E+00 0.000E+00
BIGSUB  11        0    7.23701E-01   248.800     0.000   103.276    89.534    66.835    24.164    89.635    10.747   147.331     0.005     0.018     0.002     0.001     0.014     0.002    46.166     0.070     0.001 .00000E+00 0.000E+00 0.000E+00 0.000E+00 0.000E+00 0.000E+00
BIGSUB  12        0    7.37963E-01   248.800     0.000   103.356    85.489    60.305     7.457    73.980     2.997   152.725     0.027     0.082     0.010     0.001     0.010     0.008    75.418     0.105     0.000 .00000E+00 0.000E+00 0.000E+00 0.000E+00 0.000E+00 0.000E+00
BIGSUB  13        0    7.15893E+00   248.800     0.000   103.256    78.696    54.442     0.323    55.105     0.048   161.191     0.075     0.063     0.008     0.002     0.008     0.006   105.957     0.141     0.000 .00000E+00 0.000E+00 0.000E+00 0.000E+00 0.000E+00 0.000E+00
BIGSUB  14        0    7.63610E-02   248.800     0.000   103.425    98.744     4.269     0.755   151.663     0.000   151.737     0.000     0.000     0.000     0.002     0.025     0.000     0.000     0.000     0.000 .00000E+00 0.000E+00 0.000E+00 0.000E+00 0.000E+00 0.000E+00
BIGSUB  15        0    7.11081E-01   248.800     0.000   103.419    84.933    61.603    23.558    71.962    11.126   151.833     0.018     0.072     0.009     1.489     0.006     0.006    67.963     0.124     0.002 .00000E+00 0.000E+00 0.000E+00 0.000E+00 0.000E+00 0.000E+00
BIGSUB   1        0    8.10517E+00   467.800     0.000   112.642    71.104    81.422     0.085   159.785     0.035   378.280     1.343     1.875     0.231     0.006     0.006     0.179   218.423     0.196     0.000 .00000E+00 0.000E+00 0.000E+00 0.000E+00 0.000E+00 0.000E+00
BIGSUB   2        0    8.11953E+00   467.800     0.000   112.781    72.253    81.632     0.642   174.997     0.203   377.580     1.564     1.843     0.229     0.011     0.009     0.174   202.324     0.190     0.000 .00000E+00 0.000E+00 0.000E+00 0.000E+00 0.000E+00 0.000E+00
BIGSUB   3        0    8.14970E+00   467.800     0.000   112.816    78.715    75.694     9.300   203.334     2.640   373.347     0.745     1.221     0.150     0.004     0.021     0.115   167.212     0.163     0.000 .00000E+00 0.000E+00 0.000E+00 0.000E+00 0.000E+00 0.000E+00
BIGSUB   4        0    8.20992E+00   467.800     0.000   112.867    75.450    95.207    18.865   174.620     7.277   371.344     0.857     1.452     0.186     0.010     0.016     0.134   189.109     0.201     0.001 .00000E+00 0.000E+00 0.000E+00 0.000E+00 0.000E+00 0.000E+00
BIGSUB   5        0    8.12754E+00   467.800     0.000   112.707    71.465    88.120     1.974   164.917     0.366   378.187     1.052     1.994     0.245     0.006     0.006     0.189   212.832     0.204     0.000 .00000E+00 0.000E+00 0.000E+00 0.000E+00 0.000E+00 0.000E+00
BIGSUB   6        0    8.26718E+00   467.800     0.000   112.598    70.664    83.971     0.449   152.716     0.272   378.102     1.548     1.949     0.240     0.006     0.004     0.186   225.069     0.201     0.000 .00000E+00 0.000E+00 0.000E+00 0.000E+00 0.000E+00 0.000E+00
BIGSUB   7        0    8.15360E+00   467.800     0.000   112.508    72.703    82.635     7.866   165.601     3.721   374.728     1.414     1.750     0.216     0.006     0.010     0.166   205.213     0.184     0.001 .00000E+00 0.000E+00 0.000E+00 0.000E+00 0.000E+00 0.000E+00
BIGSUB   8        0    8.53384E+00   467.800     0.000   112.561    71.281    92.763    13.200   154.173     6.096   373.507     2.103     1.915     0.236     0.006     0.005     0.182   212.946     0.201     0.001 .00000E+00 0.000E+00 0.000E+00 0.000E+00 0.000E+00 0.000E+00
BIGSUB   9        0    8.98704E-01   467.800     0.000   112.835    72.291    85.221     3.058   182.707     1.145   377.740     1.909     2.019     0.256     0.013     0.010     0.190   193.785     0.205     0.000 .00000E+00 0.000E+00 0.000E+00 0.000E+00 0.000E+00 0.000E+00
BIGSUB  10        0    8.68026E-01   467.800     0.000   112.947    83.219    54.179     9.635   256.820     1.812   375.817     0.530     1.401     0.172     0.005     0.028     0.132   117.018     0.140     0.000 .00000E+00 0.000E+00 0.000E+00 0.000E+00 0.000E+00 0.000E+00
BIGSUB  11        0    8.23701E-01   467.800     0.000   112.862    87.192    66.997    42.977   263.941    20.114   358.481     0.141     0.563     0.069     0.002     0.038     0.051    73.541     0.083     0.005 .00000E+00 0.000E+00 0.000E+00 0.000E+00 0.000E+00 0.000E+00
BIGSUB  12        0    8.37963E-01   467.800     0.000   112.935    82.686    58.807    19.762   250.703     5.208   372.317     0.455     1.382     0.169     0.004     0.028     0.130   116.054     0.148     0.001 .00000E+00 0.000E+00 0.000E+00 0.000E+00 0.000E+00 0.000E+00
BIGSUB  13        0    8.15893E+00   467.800     0.000   112.843    76.560    65.213     2.236   226.044     0.099   378.243     0.872     1.430     0.176     0.006     0.021     0.136   152.033     0.152     0.000 .00000E+00 0.000E+00 0.000E+00 0.000E+00 0.000E+00 0.000E+00
BIGSUB  14        0    8.63610E-02   467.800     0.000   112.997    96.815     3.266     0.940   371.049     0.000   371.116     0.000     0.000     0.000     0.001     0.059     0.000     0.000     0.000     0.000 .00000E+00 0.000E+00 0.000E+00 0.000E+00 0.000E+00 0.000E+00
BIGSUB  15        0    8.11081E-01   467.800     0.000   112.992    91.533    58.499    36.502   241.853    17.824   361.529     0.287     1.057     0.130     0.028     0.025     0.096   100.984     0.110     0.002 .00000E+00 0.000E+00 0.000E+00 0.000E+00 0.000E+00 0.000E+00
BIGSUB   1        0    9.10517E+00   166.700     0.000   150.410    80.081    72.531     0.019    20.148     0.038    95.839     0.400     0.449     0.055     0.002     0.001     0.043    75.626     0.044     0.000 .00000E+00 0.000E+00 0.000E+00 0.000E+00 0.000E+00 0.000E+00
BIGSUB   2        0    9.11953E+00   166.700     0.000   150.559    81.482    72.247     0.153    23.947     0.249    95.012     0.497     0.452     0.056     0.004     0.001     0.043    70.771     0.044     0.000 .00000E+00 0.000E+00 0.000E+00 0.000E+00 0.000E+00 0.000E+00
BIGSUB   3        0    9.14970E+00   166.700     0.000   150.596    87.792    68.629     1.503    28.891     4.649    89.507     0.216     0.268     0.033     0.001     0.003     0.025    55.774     0.036     0.000 .00000E+00 0.000E+00 0.000E+00 0.000E+00 0.000E+00 0.000E+00
BIGSUB   4        0    9.20992E+00   166.700     0.000   150.681    85.643    87.404     3.281    22.863    10.418    96.961     0.248     0.316     0.040     0.004     0.002     0.030    63.274     0.046     0.002 .00000E+00 0.000E+00 0.000E+00 0.000E+00 0.000E+00 0.000E+00
BIGSUB   5        0    9.12754E+00   166.700     0.000   150.480    80.926    78.433     0.484    19.930     0.422    95.747     0.313     0.485     0.060     0.002     0.001     0.046    75.326     0.049     0.000 .00000E+00 0.000E+00 0.000E+00 0.000E+00 0.000E+00 0.000E+00
BIGSUB   6        0    9.26718E+00   166.700     0.000   150.364    79.809    74.800     0.065    18.388     0.294    96.621     0.460     0.452     0.056     0.002     0.000     0.043    77.901     0.045     0.000 .00000E+00 0.000E+00 0.000E+00 0.000E+00 0.000E+00 0.000E+00
BIGSUB   7        0    9.15360E+00   166.700     0.000   150.268    82.182    73.560     1.800    21.094     4.711    96.988     0.419     0.392     0.048     0.002     0.001     0.038    70.973     0.042     0.001 .00000E+00 0.000E+00 0.000E+00 0.000E+00 0.000E+00 0.000E+00
BIGSUB   8        0    9.53384E+00   166.700     0.000   150.324    80.766    83.818     2.747    19.308     7.787   100.528     0.643     0.417     0.051     0.002     0.000     0.040    73.105     0.044     0.002 .00000E+00 0.000E+00 0.000E+00 0.000E+00 0.000E+00 0.000E+00
BIGSUB   9        0    9.98704E-01   166.700     0.000   150.616    81.841    75.654     0.436    25.934     1.324    95.676     0.604     0.483     0.061     0.005     0.001     0.046    68.317     0.048     0.000 .00000E+00 0.000E+00 0.000E+00 0.000E+00 0.000E+00 0.000E+00
BIGSUB  10        0    9.68026E-01   166.700     0.000   150.736    92.066    47.370     1.686    38.007     2.295    82.399     0.140     0.304     0.037     0.002     0.005     0.029    41.899     0.033     0.000 .00000E+00 0.000E+00 0.000E+00 0.000E+00 0.000E+00 0.000E+00
BIGSUB  11        0    9.23701E-01   166.700     0.000   150.645    97.215    61.837     9.447    41.503    25.663    91.994     0.035     0.100     0.012     0.001     0.006     0.009    23.800     0.021     0.006 .00000E+00 0.000E+00 0.000E+00 0.000E+00 0.000E+00 0.000E+00
BIGSUB  12        0    9.37963E-01   166.700     0.000   150.723    91.893    52.473     3.760    36.811     8.829    86.776     0.119     0.295     0.036     0.001     0.005     0.028    40.718     0.035     0.002 .00000E+00 0.000E+00 0.000E+00 0.000E+00 0.000E+00 0.000E+00
BIGSUB  13        0    9.15893E+00   166.700     0.000   150.625    85.293    57.547     0.505    34.650     0.320    89.153     0.265     0.346     0.043     0.003     0.004     0.033    54.118     0.036     0.000 .00000E+00 0.000E+00 0.000E+00 0.000E+00 0.000E+00 0.000E+00
BIGSUB  14        0    9.63610E-02   166.700     0.000   150.790   104.111     0.745     0.464    64.647     0.000    64.705     0.000     0.000     0.000     0.001     0.010     0.000     0.000     0.000     0.000 .00000E+00 0.000E+00 0.000E+00 0.000E+00 0.000E+00 0.000E+00
BIGSUB  15        0    9.11081E-01   166.700     0.000   150.784   104.868    46.925     5.946    33.034    21.400    90.041     0.074     0.221     0.027     0.008     0.004     0.020    34.647     0.027     0.001 .00000E+00 0.000E+00 0.000E+00 0.000E+00 0.000E+00 0.000E+00
BIGSUB   1        0   10.10517E+00   234.500     0.000   163.591    73.751    78.907     0.043    54.856     0.022   148.053     1.947     1.848     0.227     0.006     0.002     0.178    93.154     0.095     0.000 .00000E+00 0.000E+00 0.000E+00 0.000E+00 0.000E+00 0.000E+00
BIGSUB   2        0   10.11953E+00   234.500     0.000   163.724    74.723    78.278     0.224    60.700     0.183   147.829     1.703     1.881     0.231     0.010     0.003     0.180    86.908     0.094     0.000 .00000E+00 0.000E+00 0.000E+00 0.000E+00 0.000E+00 0.000E+00
BIGSUB   3        0   10.14970E+00   234.500     0.000   163.757    81.948    77.453     1.890    66.931     3.210   140.516     1.072     1.182     0.145     0.004     0.007     0.113    70.183     0.078     0.000 .00000E+00 0.000E+00 0.000E+00 0.000E+00 0.000E+00 0.000E+00
BIGSUB   4        0   10.20992E+00   234.500     0.000   163.969    79.705    95.873     4.315    57.836     7.255   144.874     1.175     1.350     0.167     0.008     0.005     0.129    79.378     0.097     0.001 .00000E+00 0.000E+00 0.000E+00 0.000E+00 0.000E+00 0.000E+00
BIGSUB   5        0   10.12754E+00   234.500     0.000   163.654    74.404    85.099     0.170    55.122     0.298   147.388     1.500     2.088     0.256     0.007     0.002     0.199    91.905     0.100     0.000 .00000E+00 0.000E+00 0.000E+00 0.000E+00 0.000E+00 0.000E+00
BIGSUB   6        0   10.26718E+00   234.500     0.000   163.550    73.362    81.268     0.035    52.135     0.183   148.327     2.261     1.847     0.227     0.007     0.001     0.178    95.978     0.098     0.000 .00000E+00 0.000E+00 0.000E+00 0.000E+00 0.000E+00 0.000E+00
BIGSUB   7        0   10.15360E+00   234.500     0.000   163.465    75.214    80.555     2.602    55.947     3.462   147.283     2.062     1.623     0.200     0.006     0.003     0.157    87.668     0.094     0.001 .00000E+00 0.000E+00 0.000E+00 0.000E+00 0.000E+00 0.000E+00
BIGSUB   8        0   10.53384E+00   234.500     0.000   163.515    74.389    90.275     4.095    52.829     5.692   149.167     2.433     1.709     0.210     0.007     0.001     0.164    90.322     0.095     0.001 .00000E+00 0.000E+00 0.000E+00 0.000E+00 0.000E+00 0.000E+00
BIGSUB   9        0   10.98704E-01   234.500     0.000   163.775    74.842    82.004     0.269    64.375     0.587   148.060     1.790     1.908     0.236     0.011     0.003     0.184    83.006     0.095     0.000 .00000E+00 0.000E+00 0.000E+00 0.000E+00 0.000E+00 0.000E+00
BIGSUB  10        0   10.68026E-01   234.500     0.000   163.881    85.863    57.283     1.807    82.555     1.608   135.100     0.655     1.333     0.163     0.005     0.009     0.126    50.740     0.066     0.000 .00000E+00 0.000E+00 0.000E+00 0.000E+00 0.000E+00 0.000E+00
BIGSUB  11        0   10.23701E-01   234.500     0.000   163.801    92.128    72.697    13.839    85.164    18.623   134.445     0.187     0.553     0.068     0.003     0.012     0.050    29.631     0.043     0.003 .00000E+00 0.000E+00 0.000E+00 0.000E+00 0.000E+00 0.000E+00
BIGSUB  12        0   10.37963E-01   234.500     0.000   163.870    86.372    63.325     4.239    80.741     5.006   134.889     0.558     1.344     0.165     0.004     0.009     0.127    48.724     0.064     0.001 .00000E+00 0.000E+00 0.000E+00 0.000E+00 0.000E+00 0.000E+00
BIGSUB  13        0   10.15893E+00   234.500     0.000   163.783    78.846    64.877     0.449    77.643     0.123   143.523     1.096     1.492     0.183     0.006     0.007     0.142    65.695     0.073     0.000 .00000E+00 0.000E+00 0.000E+00 0.000E+00 0.000E+00 0.000E+00
BIGSUB  14        0   10.63610E-02   234.500     0.000   163.930    98.664    10.951     1.921   122.958     0.000   123.014     0.000     0.000     0.000     0.001     0.020     0.000     0.000     0.000     0.000 .00000E+00 0.000E+00 0.000E+00 0.000E+00 0.000E+00 0.000E+00
BIGSUB  15        0   10.11081E-01   234.500     0.000   163.924    89.486    66.284     6.115    73.151    12.749   129.599     0.345     0.972     0.119     0.029     0.007     0.091    42.784     0.072     0.000 .00000E+00 0.000E+00 0.000E+00 0.000E+00 0.000E+00 0.000E+00
BIGSUB   1        0   11.10517E+00   180.900     0.000   149.975    74.256    77.055     0.044    28.141     0.005   109.224     1.807     1.397     0.171     0.003     0.001     0.135    81.062     0.086     0.000 .00000E+00 0.000E+00 0.000E+00 0.000E+00 0.000E+00 0.000E+00
BIGSUB   2        0   11.11953E+00   180.900     0.000   150.073    75.027    76.492     0.125    32.119     0.133   108.384     1.485     1.453     0.178     0.005     0.002     0.140    76.103     0.086     0.000 .00000E+00 0.000E+00 0.000E+00 0.000E+00 0.000E+00 0.000E+00
BIGSUB   3        0   11.14970E+00   180.900     0.000   150.097    83.570    76.473     1.188    37.870     0.589    98.394     1.000     0.938     0.115     0.002     0.004     0.090    59.770     0.069     0.000 .00000E+00 0.000E+00 0.000E+00 0.000E+00 0.000E+00 0.000E+00
BIGSUB   4        0   11.20992E+00   180.900     0.000   150.423    80.693    95.026     2.953    31.489     3.142   102.718     1.089     1.084     0.134     0.003     0.003     0.104    67.738     0.087     0.000 .00000E+00 0.000E+00 0.000E+00 0.000E+00 0.000E+00 0.000E+00
BIGSUB   5        0   11.12754E+00   180.900     0.000   150.021    75.141    83.137     0.232    28.187     0.180   108.415     1.406     1.643     0.201     0.003     0.001     0.157    79.998     0.092     0.000 .00000E+00 0.000E+00 0.000E+00 0.000E+00 0.000E+00 0.000E+00
BIGSUB   6        0   11.26718E+00   180.900     0.000   149.944    73.596    79.343     0.254    26.171     0.078   109.845     2.101     1.390     0.171     0.003     0.001     0.135    83.573     0.089     0.000 .00000E+00 0.000E+00 0.000E+00 0.000E+00 0.000E+00 0.000E+00
BIGSUB   7        0   11.15360E+00   180.900     0.000   149.881    75.491    79.160     1.789    29.282     2.405   108.296     1.921     1.259     0.155     0.003     0.002     0.122    76.430     0.088     0.000 .00000E+00 0.000E+00 0.000E+00 0.000E+00 0.000E+00 0.000E+00
BIGSUB   8        0   11.53384E+00   180.900     0.000   149.918    75.077    88.560     2.850    26.976     3.999   109.710     2.157     1.296     0.159     0.003     0.001     0.125    78.453     0.086     0.001 .00000E+00 0.000E+00 0.000E+00 0.000E+00 0.000E+00 0.000E+00
BIGSUB   9        0   11.98704E-01   180.900     0.000   150.111    75.079    80.177     0.724    34.775     0.359   107.970     1.509     1.501     0.185     0.005     0.002     0.145    72.763     0.088     0.000 .00000E+00 0.000E+00 0.000E+00 0.000E+00 0.000E+00 0.000E+00
BIGSUB  10        0   11.68026E-01   180.900     0.000   150.189    87.387    57.533     0.932    49.290     0.807    93.757     0.616     1.104     0.135     0.004     0.006     0.105    43.492     0.060     0.000 .00000E+00 0.000E+00 0.000E+00 0.000E+00 0.000E+00 0.000E+00
BIGSUB  11        0   11.23701E-01   180.900     0.000   150.130    95.301    73.430     9.261    50.752    12.699    89.470     0.179     0.511     0.062     0.002     0.008     0.046    25.114     0.039     0.002 .00000E+00 0.000E+00 0.000E+00 0.000E+00 0.000E+00 0.000E+00
BIGSUB  12        0   11.37963E-01   180.900     0.000   150.181    88.974    64.130     2.656    47.724     3.202    92.502     0.528     1.144     0.140     0.002     0.006     0.108    41.216     0.057     0.000 .00000E+00 0.000E+00 0.000E+00 0.000E+00 0.000E+00 0.000E+00
BIGSUB  13        0   11.15893E+00   180.900     0.000   150.117    80.103    63.627     0.150    45.270     0.050   102.529     1.005     1.200     0.147     0.003     0.005     0.115    57.158     0.067     0.000 .00000E+00 0.000E+00 0.000E+00 0.000E+00 0.000E+00 0.000E+00
BIGSUB  14        0   11.63610E-02   180.900     0.000   150.225   101.943    10.867     0.567    78.648     0.000    78.703     0.000     0.000     0.000     0.002     0.013     0.000     0.000     0.000     0.000 .00000E+00 0.000E+00 0.000E+00 0.000E+00 0.000E+00 0.000E+00
BIGSUB  15        0   11.11081E-01   180.900     0.000   150.221    69.320    66.649    16.065    56.191     8.452   104.471     0.327     0.850     0.104     0.031     0.006     0.079    39.059     0.087     0.001 .00000E+00 0.000E+00 0.000E+00 0.000E+00 0.000E+00 0.000E+00
BIGSUB   1        0   12.10517E+00   309.800     0.000   145.849    94.824    82.864     0.062    53.298     0.024   207.540     6.273     3.933     0.483     0.003     0.002     0.380   154.205     0.207     0.000 .00000E+00 0.000E+00 0.000E+00 0.000E+00 0.000E+00 0.000E+00
BIGSUB   2        0   12.11953E+00   309.800     0.000   145.887    95.989    82.539     0.343    61.309     0.151   206.148     4.869     4.145     0.509     0.008     0.003     0.399   144.663     0.203     0.000 .00000E+00 0.000E+00 0.000E+00 0.000E+00 0.000E+00 0.000E+00
BIGSUB   3        0   12.14970E+00   309.800     0.000   145.896   104.663    82.312     4.740    77.781     1.747   195.040     3.480     2.710     0.332     0.002     0.009     0.259   115.355     0.163     0.000 .00000E+00 0.000E+00 0.000E+00 0.000E+00 0.000E+00 0.000E+00
BIGSUB   4        0   12.20992E+00   309.800     0.000   146.439   101.159    99.548    10.253    61.576     4.531   197.519     3.756     3.170     0.390     0.004     0.006     0.303   131.074     0.201     0.001 .00000E+00 0.000E+00 0.000E+00 0.000E+00 0.000E+00 0.000E+00
BIGSUB   5        0   12.12754E+00   309.800     0.000   145.867    95.777    89.892     0.549    52.990     0.261   205.533     4.870     4.700     0.576     0.003     0.001     0.450   152.240     0.207     0.000 .00000E+00 0.000E+00 0.000E+00 0.000E+00 0.000E+00 0.000E+00
BIGSUB   6        0   12.26718E+00   309.800     0.000   145.837    94.250    85.151     0.365    48.807     0.196   207.944     7.303     3.880     0.476     0.003     0.001     0.377   158.920     0.214     0.000 .00000E+00 0.000E+00 0.000E+00 0.000E+00 0.000E+00 0.000E+00
BIGSUB   7        0   12.15360E+00   309.800     0.000   145.813    96.504    85.030     4.673    56.048     2.697   204.081     6.679     3.609     0.444     0.003     0.003     0.352   145.163     0.210     0.001 .00000E+00 0.000E+00 0.000E+00 0.000E+00 0.000E+00 0.000E+00
BIGSUB   8        0   12.53384E+00   309.800     0.000   145.827    95.552    93.912     7.470    50.183     4.467   204.445     7.194     3.618     0.444     0.004     0.001     0.349   149.520     0.204     0.001 .00000E+00 0.000E+00 0.000E+00 0.000E+00 0.000E+00 0.000E+00
BIGSUB   9        0   12.98704E-01   309.800     0.000   145.901    96.248    86.522     1.436    65.580     0.614   205.122     4.776     4.328     0.533     0.007     0.003     0.419   138.862     0.206     0.000 .00000E+00 0.000E+00 0.000E+00 0.000E+00 0.000E+00 0.000E+00
BIGSUB  10        0   12.68026E-01   309.800     0.000   145.932   109.911    63.384     4.728   102.912     1.059   189.549     2.024     3.096     0.379     0.012     0.012     0.294    85.418     0.146     0.000 .00000E+00 0.000E+00 0.000E+00 0.000E+00 0.000E+00 0.000E+00
BIGSUB  11        0   12.23701E-01   309.800     0.000   145.909   117.652    79.210    25.402   110.341    14.410   175.247     0.603     1.585     0.194     0.002     0.016     0.143    49.606     0.080     0.003 .00000E+00 0.000E+00 0.000E+00 0.000E+00 0.000E+00 0.000E+00
BIGSUB  12        0   12.37963E-01   309.800     0.000   145.929   110.824    68.363    10.625    99.706     3.673   187.054     1.683     3.171     0.388     0.002     0.012     0.299    83.330     0.148     0.001 .00000E+00 0.000E+00 0.000E+00 0.000E+00 0.000E+00 0.000E+00
BIGSUB  13        0   12.15893E+00   309.800     0.000   145.904   101.200    69.878     0.715    91.224     0.057   200.637     3.412     3.489     0.428     0.004     0.009     0.334   109.312     0.153     0.000 .00000E+00 0.000E+00 0.000E+00 0.000E+00 0.000E+00 0.000E+00
BIGSUB  14        0   12.63610E-02   309.800     0.000   145.946   126.187    21.173     0.628   172.647     0.000   172.701     0.000     0.000     0.000     0.002     0.027     0.000     0.000     0.000     0.000 .00000E+00 0.000E+00 0.000E+00 0.000E+00 0.000E+00 0.000E+00
BIGSUB  15        0   12.11081E-01   309.800     0.000   145.944   105.002    68.574    26.990   100.185    14.028   189.967     1.028     2.367     0.290     0.157     0.015     0.222    74.947     0.210     0.005 .00000E+00 0.000E+00 0.000E+00 0.000E+00 0.000E+00 0.000E+00
BIGSUB   1        0 2013.10517E+00  3096.300     0.000  1499.572   894.896    82.864     9.750   683.861     0.342  2185.796    36.486    44.440     5.434     0.031     0.031     4.351  1500.907     1.614     0.000 .00000E+00 0.000E+00 0.000E+00 0.000E+00 0.000E+00 0.000E+00
BIGSUB   2        0 2013.11953E+00  3096.300     0.000  1500.204   901.815    82.539    14.346   761.762     2.612  2175.354    29.008    41.405     5.070     0.223     0.044     4.040  1409.980     1.626     0.001 .00000E+00 0.000E+00 0.000E+00 0.000E+00 0.000E+00 0.000E+00
BIGSUB   3        0 2013.14970E+00  3096.300     0.000  1500.362   970.503    82.312    45.982   949.690    31.290  2102.197    20.303    28.451     3.478     0.022     0.106     2.761  1118.508     1.240     0.005 .00000E+00 0.000E+00 0.000E+00 0.000E+00 0.000E+00 0.000E+00
BIGSUB   4        0 2013.20992E+00  3096.300     0.000  1505.266   953.342    99.548    92.920   778.566    77.201  2127.688    21.924    32.190     3.953     0.258     0.075     3.106  1266.586     1.591     0.015 .00000E+00 0.000E+00 0.000E+00 0.000E+00 0.000E+00 0.000E+00
BIGSUB   5        0 2013.12754E+00  3096.300     0.000  1499.870   901.271    89.892    19.628   669.775     3.710  2169.766    26.550    43.500     5.320     0.032     0.026     4.233  1494.906     1.665     0.001 .00000E+00 0.000E+00 0.000E+00 0.000E+00 0.000E+00 0.000E+00
BIGSUB   6        0 2013.26718E+00  3096.300     0.000  1499.373   891.996    85.151    12.105   638.798     2.673  2188.954    42.412    46.388     5.673     0.032     0.021     4.549  1546.660     1.671     0.001 .00000E+00 0.000E+00 0.000E+00 0.000E+00 0.000E+00 0.000E+00
BIGSUB   7        0 2013.15360E+00  3096.300     0.000  1498.967   911.839    85.030    50.167   717.410    39.361  2169.465    38.527    40.569     4.964     0.037     0.049     3.976  1409.818     1.634     0.010 .00000E+00 0.000E+00 0.000E+00 0.000E+00 0.000E+00 0.000E+00
BIGSUB   8        0 2013.53384E+00  3096.301     0.000  1499.206   903.168    93.912    76.029   657.304    64.112  2178.647    43.286    44.209     5.406     0.038     0.024     4.328  1452.912     1.603     0.016 .00000E+00 0.000E+00 0.000E+00 0.000E+00 0.000E+00 0.000E+00
BIGSUB   9        0 2013.98704E-01  3096.299     0.000  1500.448   903.779    86.522    26.563   798.507    12.115  2170.716    28.731    41.062     5.039     0.296     0.046     4.004  1358.383     1.693     0.004 .00000E+00 0.000E+00 0.000E+00 0.000E+00 0.000E+00 0.000E+00
BIGSUB  10        0 2013.68026E-01  3096.301     0.000  1500.955  1001.486    63.384    46.726  1210.665    27.386  2062.816    10.355    24.015     2.937     0.255     0.145     2.319   822.020     1.065     0.003 .00000E+00 0.000E+00 0.000E+00 0.000E+00 0.000E+00 0.000E+00
BIGSUB  11        0 2013.23701E-01  3096.300     0.000  1500.570  1062.329    79.210   228.161  1314.346   208.095  2008.121     3.429    11.740     1.435     0.016     0.198     1.086   473.083     0.576     0.052 .00000E+00 0.000E+00 0.000E+00 0.000E+00 0.000E+00 0.000E+00
BIGSUB  12        0 2013.37963E-01  3096.299     0.000  1500.902  1008.191    68.363    94.531  1181.495    70.816  2053.689     8.344    22.917     2.802     0.020     0.145     2.200   796.009     1.012     0.014 .00000E+00 0.000E+00 0.000E+00 0.000E+00 0.000E+00 0.000E+00
BIGSUB  13        0 2013.15893E+00  3096.300     0.000  1500.487   936.071    69.878    18.191  1060.121     2.477  2134.477    18.832    30.709     3.756     0.038     0.113     2.990  1070.673     1.208     0.000 .00000E+00 0.000E+00 0.000E+00 0.000E+00 0.000E+00 0.000E+00
BIGSUB  14        0 2013.63610E-02  3096.301     0.000  1501.185  1110.325    21.173    15.070  1951.578     0.000  1952.362     0.000     0.000     0.000     0.014     0.315     0.000     0.000     0.000     0.000 .00000E+00 0.000E+00 0.000E+00 0.000E+00 0.000E+00 0.000E+00
BIGSUB  15        0 2013.11081E-01  3096.300     0.000  1501.160  1004.175    68.574   218.435  1158.032   195.858  2069.686     5.100    16.585     2.030     2.711     0.138     1.575   703.680     1.505     0.063 .00000E+00 0.000E+00 0.000E+00 0.000E+00 0.000E+00 0.000E+00
BIGSUB   1        0    1.10517E+00   549.600     0.000   142.788    95.747    85.112     4.163   182.480     0.050   453.903    13.432    29.188     3.564     0.004     0.011     2.869   271.347     0.358     0.000 .00000E+00 0.000E+00 0.000E+00 0.000E+00 0.000E+00 0.000E+00
BIGSUB   2        0    1.11953E+00   549.600     0.000   142.719    96.411    82.585     6.437   196.360     0.292   452.975     9.721    26.393     3.225     0.010     0.014     2.586   256.276     0.369     0.000 .00000E+00 0.000E+00 0.000E+00 0.000E+00 0.000E+00 0.000E+00
BIGSUB   3        0    1.14970E+00   549.600     0.000   142.702   104.426    77.670    14.087   229.939     5.073   446.094     7.494    18.357     2.241     0.003     0.027     1.790   210.876     0.280     0.001 .00000E+00 0.000E+00 0.000E+00 0.000E+00 0.000E+00 0.000E+00
BIGSUB   4        0    1.20992E+00   549.600     0.000   143.595   101.271    97.525    26.484   191.252    10.998   441.707     7.986    20.463     2.501     0.006     0.020     1.985   239.026     0.334     0.004 .00000E+00 0.000E+00 0.000E+00 0.000E+00 0.000E+00 0.000E+00
BIGSUB   5        0    1.12754E+00   549.600     0.000   142.756    95.728    87.993     9.861   177.178     0.472   452.705     9.690    27.697     3.383     0.004     0.010     2.709   274.980     0.405     0.000 .00000E+00 0.000E+00 0.000E+00 0.000E+00 0.000E+00 0.000E+00
BIGSUB   6        0    1.26718E+00   549.600     0.000   142.810    95.179    87.820     4.831   173.830     0.374   453.921    15.639    30.931     3.777     0.005     0.009     3.045   279.680     0.371     0.000 .00000E+00 0.000E+00 0.000E+00 0.000E+00 0.000E+00 0.000E+00
BIGSUB   7        0    1.15360E+00   549.600     0.000   142.854    97.227    86.561    13.293   188.352     4.976   448.890    14.316    28.239     3.452     0.007     0.015     2.781   255.345     0.353     0.002 .00000E+00 0.000E+00 0.000E+00 0.000E+00 0.000E+00 0.000E+00
BIGSUB   8        0    1.53384E+00   549.600     0.000   142.828    96.174    96.149    20.030   171.995     8.220   446.305    14.973    29.372     3.587     0.005     0.010     2.886   265.750     0.354     0.004 .00000E+00 0.000E+00 0.000E+00 0.000E+00 0.000E+00 0.000E+00
BIGSUB   9        0    1.98704E-01   549.600     0.000   142.693    96.317    85.442    10.500   201.649     1.345   450.936     9.007    26.249     3.210     0.008     0.014     2.570   247.839     0.378     0.001 .00000E+00 0.000E+00 0.000E+00 0.000E+00 0.000E+00 0.000E+00
BIGSUB  10        0    1.68026E-01   549.600     0.000   142.638   108.659    54.188    13.811   284.648     2.337   442.589     3.726    14.544     1.776     0.013     0.036     1.414   155.398     0.253     0.001 .00000E+00 0.000E+00 0.000E+00 0.000E+00 0.000E+00 0.000E+00
BIGSUB  11        0    1.23701E-01   549.600     0.000   142.680   115.509    67.283    54.485   299.525    26.945   422.806     1.269     7.015     0.857     0.002     0.046     0.654    95.269     0.125     0.012 .00000E+00 0.000E+00 0.000E+00 0.000E+00 0.000E+00 0.000E+00
BIGSUB  12        0    1.37963E-01   549.600     0.000   142.643   109.145    58.748    25.143   275.969     9.645   438.759     3.011    13.719     1.676     0.003     0.035     1.327   152.713     0.245     0.003 .00000E+00 0.000E+00 0.000E+00 0.000E+00 0.000E+00 0.000E+00
BIGSUB  13        0    1.15893E+00   549.600     0.000   142.689   101.197    64.934     7.711   253.097     0.359   450.606     6.676    19.994     2.443     0.005     0.028     1.956   197.081     0.296     0.000 .00000E+00 0.000E+00 0.000E+00 0.000E+00 0.000E+00 0.000E+00
BIGSUB  14        0    1.63610E-02   549.600     0.000   142.613   124.642     2.827     1.171   442.734     0.000   442.786     0.000     0.000     0.000     0.002     0.072     0.000     0.000     0.000     0.000 .00000E+00 0.000E+00 0.000E+00 0.000E+00 0.000E+00 0.000E+00
BIGSUB  15        0    1.11081E-01   549.600     0.000   142.615   104.696    62.196    52.061   268.206    26.566   430.375     1.829     9.661     1.181     0.153     0.043     0.929   134.584     0.334     0.018 .00000E+00 0.000E+00 0.000E+00 0.000E+00 0.000E+00 0.000E+00
BIGSUB   1        0    2.10517E+00   351.600     0.000   144.159    98.515    87.057     1.262    79.561     0.048   247.440     0.492     0.831     0.102     0.001     0.002     0.082   167.791     0.016     0.000 .00000E+00 0.000E+00 0.000E+00 0.000E+00 0.000E+00 0.000E+00
BIGSUB   2        0    2.11953E+00   351.600     0.000   144.086    98.144    84.564     2.058    88.259     0.335   247.426     0.610     1.003     0.123     0.192     0.003     0.099   158.766     0.186     0.000 .00000E+00 0.000E+00 0.000E+00 0.000E+00 0.000E+00 0.000E+00
BIGSUB   3        0    2.14970E+00   351.600     0.000   144.068   101.056    80.787     6.222   110.473     5.097   244.467     0.263     0.475     0.058     0.000     0.011     0.047   128.669     0.008     0.001 .00000E+00 0.000E+00 0.000E+00 0.000E+00 0.000E+00 0.000E+00
BIGSUB   4        0    2.20992E+00   351.600     0.000   144.996   101.211    99.678    12.873    87.492    10.992   245.042     0.329     0.635     0.078     0.179     0.006     0.061   146.094     0.341     0.003 .00000E+00 0.000E+00 0.000E+00 0.000E+00 0.000E+00 0.000E+00
BIGSUB   5        0    2.12754E+00   351.600     0.000   144.125    98.970    89.685     3.073    75.103     0.457   245.778     0.348     0.817     0.100     0.001     0.001     0.080   170.115     0.028     0.000 .00000E+00 0.000E+00 0.000E+00 0.000E+00 0.000E+00 0.000E+00
BIGSUB   6        0    2.26718E+00   351.600     0.000   144.182    98.554    89.683     1.619    74.025     0.357   247.347     0.565     0.849     0.104     0.002     0.000     0.084   172.914     0.050     0.000 .00000E+00 0.000E+00 0.000E+00 0.000E+00 0.000E+00 0.000E+00
BIGSUB   7        0    2.15360E+00   351.600     0.000   144.228    98.967    88.677     6.648    83.814     4.877   246.343     0.524     0.826     0.101     0.048     0.003     0.081   157.418     0.258     0.002 .00000E+00 0.000E+00 0.000E+00 0.000E+00 0.000E+00 0.000E+00
BIGSUB   8        0    2.53384E+00   351.600     0.000   144.201    98.783    97.988    10.185    74.459     8.030   246.175     0.806     0.962     0.117     0.006     0.001     0.096   163.322     0.034     0.003 .00000E+00 0.000E+00 0.000E+00 0.000E+00 0.000E+00 0.000E+00
BIGSUB   9        0    2.98704E-01   351.600     0.000   144.058    97.845    87.316     3.707    92.140     1.551   247.404     0.787     1.297     0.159     0.207     0.002     0.128   153.585     0.325     0.001 .00000E+00 0.000E+00 0.000E+00 0.000E+00 0.000E+00 0.000E+00
BIGSUB  10        0    2.68026E-01   351.600     0.000   143.999   101.732    57.905     6.241   142.261     2.878   241.259     0.134     0.457     0.056     0.366     0.016     0.044    95.894     0.136     0.000 .00000E+00 0.000E+00 0.000E+00 0.000E+00 0.000E+00 0.000E+00
BIGSUB  11        0    2.23701E-01   351.600     0.000   144.044   104.584    71.849    30.407   153.254    26.339   236.946     0.041     0.174     0.021     0.000     0.023     0.016    56.251     0.006     0.008 .00000E+00 0.000E+00 0.000E+00 0.000E+00 0.000E+00 0.000E+00
BIGSUB  12        0    2.37963E-01   351.600     0.000   144.005   102.126    62.325    12.776   137.267    10.804   242.480     0.106     0.421     0.051     0.000     0.016     0.041    93.949     0.005     0.002 .00000E+00 0.000E+00 0.000E+00 0.000E+00 0.000E+00 0.000E+00
BIGSUB  13        0    2.15893E+00   351.600     0.000   144.053    98.886    67.389     2.516   123.822     0.432   246.382     0.307     0.673     0.082     0.001     0.011     0.066   122.040     0.005     0.000 .00000E+00 0.000E+00 0.000E+00 0.000E+00 0.000E+00 0.000E+00
BIGSUB  14        0    2.63610E-02   351.600     0.000   143.973   104.104     9.608     0.702   239.995     0.000   240.041     0.000     0.000     0.000     0.000     0.039     0.000     0.000     0.000     0.000 .00000E+00 0.000E+00 0.000E+00 0.000E+00 0.000E+00 0.000E+00
BIGSUB  15        0    2.11081E-01   351.600     0.000   143.976   102.126    64.335    29.945   132.713    26.380   242.144     0.068     0.351     0.043     5.334     0.011     0.032    81.984     1.707     0.018 .00000E+00 0.000E+00 0.000E+00 0.000E+00 0.000E+00 0.000E+00
BIGSUB   1        0    3.10517E+00   222.800     0.000   167.202   127.949    51.448     0.042    41.185     0.051   134.150     0.030     0.042     0.005     0.003     0.001     0.004    92.864     0.003     0.000 .00000E+00 0.000E+00 0.000E+00 0.000E+00 0.000E+00 0.000E+00
BIGSUB   2        0    3.11953E+00   222.800     0.000   167.162   126.980    50.501     0.176    45.406     0.348   133.581     0.281     0.159     0.020     0.020     0.001     0.016    87.745     0.013     0.000 .00000E+00 0.000E+00 0.000E+00 0.000E+00 0.000E+00 0.000E+00
BIGSUB   3        0    3.14970E+00   222.800     0.000   167.152   128.728    52.611     1.891    53.239     5.410   128.862     0.013     0.023     0.003     0.000     0.005     0.002    69.941     0.002     0.000 .00000E+00 0.000E+00 0.000E+00 0.000E+00 0.000E+00 0.000E+00
BIGSUB   4        0    3.20992E+00   222.800     0.000   168.105   130.982    68.279     3.872    44.093    11.787   135.451     0.044     0.066     0.008     0.008     0.003     0.006    79.018     0.018     0.001 .00000E+00 0.000E+00 0.000E+00 0.000E+00 0.000E+00 0.000E+00
BIGSUB   5        0    3.12754E+00   222.800     0.000   167.183   129.070    54.668     0.184    39.244     0.505   132.938     0.017     0.035     0.004     0.006     0.000     0.003    93.061     0.005     0.000 .00000E+00 0.000E+00 0.000E+00 0.000E+00 0.000E+00 0.000E+00
BIGSUB   6        0    3.26718E+00   222.800     0.000   167.214   128.526    53.115     0.117    38.791     0.382   134.943     0.027     0.040     0.005     0.012     0.000     0.004    95.706     0.009     0.001 .00000E+00 0.000E+00 0.000E+00 0.000E+00 0.000E+00 0.000E+00
BIGSUB   7        0    3.15360E+00   222.800     0.000   167.239   129.139    53.799     2.052    42.887     5.366   135.845     0.026     0.047     0.006     0.006     0.002     0.004    87.312     0.039     0.001 .00000E+00 0.000E+00 0.000E+00 0.000E+00 0.000E+00 0.000E+00
BIGSUB   8        0    3.53384E+00   222.800     0.000   167.225   128.470    62.993     3.272    39.458     8.836   139.452     0.306     0.150     0.018     0.003     0.000     0.015    90.727     0.006     0.001 .00000E+00 0.000E+00 0.000E+00 0.000E+00 0.000E+00 0.000E+00
BIGSUB   9        0    3.98704E-01   222.800     0.000   167.147   126.789    53.842     0.424    47.951     1.471   134.183     0.469     0.328     0.040     0.033     0.001     0.033    84.604     0.019     0.004 .00000E+00 0.000E+00 0.000E+00 0.000E+00 0.000E+00 0.000E+00
BIGSUB  10        0    3.68026E-01   222.800     0.000   167.115   129.224    34.248     1.657    66.588     3.894   122.091     0.007     0.020     0.002     0.058     0.007     0.002    51.340     0.020     0.000 .00000E+00 0.000E+00 0.000E+00 0.000E+00 0.000E+00 0.000E+00
BIGSUB  11        0    3.23701E-01   222.800     0.000   167.139   132.399    52.214    10.945    70.446    28.921   132.329     0.002     0.008     0.001     0.000     0.010     0.001    31.657     0.001     0.004 .00000E+00 0.000E+00 0.000E+00 0.000E+00 0.000E+00 0.000E+00
BIGSUB  12        0    3.37963E-01   222.800     0.000   167.118   130.286    38.936     4.018    64.523     9.987   124.897     0.005     0.015     0.002     0.000     0.007     0.001    49.841     0.001     0.001 .00000E+00 0.000E+00 0.000E+00 0.000E+00 0.000E+00 0.000E+00
BIGSUB  13        0    3.15893E+00   222.800     0.000   167.144   125.469    40.214     0.350    60.233     0.361   127.294     0.078     0.058     0.007     0.001     0.005     0.006    66.591     0.002     0.000 .00000E+00 0.000E+00 0.000E+00 0.000E+00 0.000E+00 0.000E+00
BIGSUB  14        0    3.63610E-02   222.800     0.000   167.101   124.010     0.000     1.154   107.267     0.000   107.317     0.000     0.000     0.000     0.000     0.017     0.000     0.000     0.000     0.000 .00000E+00 0.000E+00 0.000E+00 0.000E+00 0.000E+00 0.000E+00
BIGSUB  15        0    3.11081E-01   222.800     0.000   167.102   137.008    38.028     9.120    61.632    27.127   134.889     0.005     0.039     0.005     1.122     0.007     0.003    44.864     0.342     0.067 .00000E+00 0.000E+00 0.000E+00 0.000E+00 0.000E+00 0.000E+00
BIGSUB   1        0    4.10517E+00   466.600     0.000   131.838   115.419    87.840     0.099    74.235     0.035   304.777     0.040     0.049     0.006     0.002     0.003     0.005   230.460     0.047     0.000 .00000E+00 0.000E+00 0.000E+00 0.000E+00 0.000E+00 0.000E+00
BIGSUB   2        0    4.11953E+00   466.600     0.000   131.856   115.112    87.353     0.569    87.587     0.232   304.986     0.511     0.202     0.025     0.009     0.004     0.020   217.090     0.074     0.000 .00000E+00 0.000E+00 0.000E+00 0.000E+00 0.000E+00 0.000E+00
BIGSUB   3        0    4.14970E+00   466.600     0.000   131.860   117.891    87.329     6.477   127.546     2.582   302.615     0.015     0.027     0.003     0.001     0.015     0.002   172.235     0.035     0.000 .00000E+00 0.000E+00 0.000E+00 0.000E+00 0.000E+00 0.000E+00
BIGSUB   4        0    4.20992E+00   466.600     0.000   132.492   117.704   103.676    14.251    94.944     8.002   299.050     0.055     0.080     0.010     0.043     0.009     0.007   195.591     0.079     0.000 .00000E+00 0.000E+00 0.000E+00 0.000E+00 0.000E+00 0.000E+00
BIGSUB   5        0    4.12754E+00   466.600     0.000   131.846   115.995    94.176     0.914    70.984     0.393   300.723     0.020     0.042     0.005     0.002     0.002     0.004   229.231     0.049     0.000 .00000E+00 0.000E+00 0.000E+00 0.000E+00 0.000E+00 0.000E+00
BIGSUB   6        0    4.26718E+00   466.600     0.000   131.833   115.629    89.960     0.450    65.869     0.276   303.678     0.031     0.046     0.006     0.002     0.001     0.004   237.473     0.049     0.000 .00000E+00 0.000E+00 0.000E+00 0.000E+00 0.000E+00 0.000E+00
BIGSUB   7        0    4.15360E+00   466.600     0.000   131.821   116.419    89.728     7.151    80.950     4.122   301.698     0.030     0.049     0.006     0.002     0.005     0.004   216.362     0.044     0.000 .00000E+00 0.000E+00 0.000E+00 0.000E+00 0.000E+00 0.000E+00
BIGSUB   8        0    4.53384E+00   466.600     0.000   131.828   115.462    98.789    11.561    70.076     6.789   300.450     0.561     0.189     0.023     0.003     0.001     0.019   223.179     0.051     0.000 .00000E+00 0.000E+00 0.000E+00 0.000E+00 0.000E+00 0.000E+00
BIGSUB   9        0    4.98704E-01   466.600     0.000   131.863   114.970    90.862     2.638    94.054     0.885   303.787     0.843     0.450     0.055     0.020     0.004     0.045   208.705     0.104     0.001 .00000E+00 0.000E+00 0.000E+00 0.000E+00 0.000E+00 0.000E+00
BIGSUB  10        0    4.68026E-01   466.600     0.000   131.877   118.798    67.260     6.886   175.244     1.918   303.780     0.008     0.024     0.003     0.003     0.021     0.002   126.369     0.032     0.000 .00000E+00 0.000E+00 0.000E+00 0.000E+00 0.000E+00 0.000E+00
BIGSUB  11        0    4.23701E-01   466.600     0.000   131.866   120.742    81.950    38.459   198.926    21.828   294.970     0.002     0.008     0.001     0.001     0.030     0.001    72.988     0.016     0.001 .00000E+00 0.000E+00 0.000E+00 0.000E+00 0.000E+00 0.000E+00
BIGSUB  12        0    4.37963E-01   466.600     0.000   131.875   119.056    71.157    15.398   170.778     6.189   300.252     0.006     0.020     0.002     0.001     0.022     0.002   122.775     0.032     0.000 .00000E+00 0.000E+00 0.000E+00 0.000E+00 0.000E+00 0.000E+00
BIGSUB  13        0    4.15893E+00   466.600     0.000   131.864   115.124    75.279     1.258   143.835     0.140   308.099     0.140     0.075     0.009     0.003     0.016     0.008   164.024     0.036     0.000 .00000E+00 0.000E+00 0.000E+00 0.000E+00 0.000E+00 0.000E+00
BIGSUB  14        0    4.63610E-02   466.600     0.000   131.883   120.910    29.279     1.887   313.667     0.000   313.718     0.000     0.000     0.000     0.000     0.050     0.000     0.000     0.000     0.000 .00000E+00 0.000E+00 0.000E+00 0.000E+00 0.000E+00 0.000E+00
BIGSUB  15        0    4.11081E-01   466.600     0.000   131.882   122.187    72.914    35.264   159.762    18.844   287.070     0.007     0.052     0.007     0.028     0.011     0.004   107.285     0.041     0.024 .00000E+00 0.000E+00 0.000E+00 0.000E+00 0.000E+00 0.000E+00
BIGSUB   1        0    5.10517E+00   221.200     0.000   141.459    77.023    86.489     0.026    43.331     0.037   154.597     0.036     0.046     0.006     0.005     0.002     0.004   111.190     0.126     0.000 .00000E+00 0.000E+00 0.000E+00 0.000E+00 0.000E+00 0.000E+00
BIGSUB   2        0    5.11953E+00   221.200     0.000   141.570    78.849    85.213     0.191    48.257     0.276   153.106     0.224     0.084     0.010     0.006     0.003     0.008   104.505     0.119     0.000 .00000E+00 0.000E+00 0.000E+00 0.000E+00 0.000E+00 0.000E+00
BIGSUB   3        0    5.14970E+00   221.200     0.000   141.598    85.654    80.147     2.934    63.146     3.609   150.697     0.017     0.028     0.003     0.004     0.007     0.003    83.687     0.094     0.000 .00000E+00 0.000E+00 0.000E+00 0.000E+00 0.000E+00 0.000E+00
BIGSUB   4        0    5.20992E+00   221.200     0.000   141.968    83.377    99.571     5.964    49.365     8.766   153.815     0.034     0.048     0.006     0.004     0.005     0.004    95.159     0.107     0.000 .00000E+00 0.000E+00 0.000E+00 0.000E+00 0.000E+00 0.000E+00
BIGSUB   5        0    5.12754E+00   221.200     0.000   141.511    77.875    91.863     1.013    42.278     0.432   154.143     0.023     0.043     0.005     0.005     0.002     0.004   111.330     0.130     0.000 .00000E+00 0.000E+00 0.000E+00 0.000E+00 0.000E+00 0.000E+00
BIGSUB   6        0    5.26718E+00   221.200     0.000   141.424    76.591    89.177     0.093    40.021     0.293   154.966     0.036     0.047     0.006     0.005     0.001     0.004   114.600     0.130     0.000 .00000E+00 0.000E+00 0.000E+00 0.000E+00 0.000E+00 0.000E+00
BIGSUB   7        0    5.15360E+00   221.200     0.000   141.353    81.157    86.485     2.685    44.486     4.535   154.228     0.033     0.043     0.005     0.004     0.003     0.004   104.939     0.114     0.000 .00000E+00 0.000E+00 0.000E+00 0.000E+00 0.000E+00 0.000E+00
BIGSUB   8        0    5.53384E+00   221.200     0.000   141.395    77.673    97.741     4.606    40.798     7.421   157.306     0.249     0.081     0.010     0.005     0.001     0.008   108.670     0.123     0.000 .00000E+00 0.000E+00 0.000E+00 0.000E+00 0.000E+00 0.000E+00
BIGSUB   9        0    5.98704E-01   221.200     0.000   141.613    80.570    88.480     0.749    49.671     1.305   151.971     0.354     0.156     0.019     0.005     0.002     0.015   100.860     0.116     0.001 .00000E+00 0.000E+00 0.000E+00 0.000E+00 0.000E+00 0.000E+00
BIGSUB  10        0    5.68026E-01   221.200     0.000   141.702    90.324    57.668     3.121    79.855     2.614   145.921     0.010     0.024     0.003     0.005     0.010     0.002    63.199     0.076     0.000 .00000E+00 0.000E+00 0.000E+00 0.000E+00 0.000E+00 0.000E+00
BIGSUB  11        0    5.23701E-01   221.200     0.000   141.634    95.661    71.165    15.866    87.338    24.261   151.199     0.003     0.010     0.001     0.002     0.013     0.001    38.314     0.041     0.001 .00000E+00 0.000E+00 0.000E+00 0.000E+00 0.000E+00 0.000E+00
BIGSUB  12        0    5.37963E-01   221.200     0.000   141.692    90.057    62.581     6.478    77.404     8.659   148.222     0.008     0.021     0.003     0.003     0.010     0.002    61.631     0.074     0.000 .00000E+00 0.000E+00 0.000E+00 0.000E+00 0.000E+00 0.000E+00
BIGSUB  13        0    5.15893E+00   221.200     0.000   141.619    84.481    68.145     0.837    69.825     0.268   149.961     0.067     0.042     0.005     0.005     0.008     0.004    79.777     0.091     0.000 .00000E+00 0.000E+00 0.000E+00 0.000E+00 0.000E+00 0.000E+00
BIGSUB  14        0    5.63610E-02   221.200     0.000   141.742   106.348     6.444     0.880   137.637     0.000   137.694     0.000     0.000     0.000     0.001     0.022     0.000     0.000     0.000     0.000 .00000E+00 0.000E+00 0.000E+00 0.000E+00 0.000E+00 0.000E+00
BIGSUB  15        0    5.11081E-01   221.200     0.000   141.738    99.664    65.237     9.822    70.593    21.663   148.638     0.006     0.027     0.003     0.026     0.005     0.002    55.166     0.080     0.010 .00000E+00 0.000E+00 0.000E+00 0.000E+00 0.000E+00 0.000E+00
BIGSUB   1        0    6.10517E+00   204.500     0.000   138.272    81.993    79.231     0.051    34.080     0.028   130.761     0.030     0.042     0.005     0.004     0.002     0.004    96.623     0.105     0.000 .00000E+00 0.000E+00 0.000E+00 0.000E+00 0.000E+00 0.000E+00
BIGSUB   2        0    6.11953E+00   204.500     0.000   138.404    82.670    77.298     0.603    38.275     0.229   130.367     0.166     0.066     0.008     0.005     0.002     0.006    91.807     0.102     0.000 .00000E+00 0.000E+00 0.000E+00 0.000E+00 0.000E+00 0.000E+00
BIGSUB   3        0    6.14970E+00   204.500     0.000   138.438    90.876    72.572     2.690    46.931     3.823   123.274     0.014     0.025     0.003     0.003     0.005     0.002    72.278     0.080     0.000 .00000E+00 0.000E+00 0.000E+00 0.000E+00 0.000E+00 0.000E+00
BIGSUB   4        0    6.20992E+00   204.500     0.000   138.700    87.045    92.001     5.894    37.678     8.187   128.968     0.027     0.042     0.005     0.003     0.003     0.004    82.604     0.093     0.000 .00000E+00 0.000E+00 0.000E+00 0.000E+00 0.000E+00 0.000E+00
BIGSUB   5        0    6.12754E+00   204.500     0.000   138.334    82.316    82.546     1.552    32.528     0.385   131.424     0.019     0.039     0.005     0.004     0.001     0.004    98.418     0.112     0.000 .00000E+00 0.000E+00 0.000E+00 0.000E+00 0.000E+00 0.000E+00
BIGSUB   6        0    6.26718E+00   204.500     0.000   138.230    81.350    81.874     0.307    31.535     0.260   131.472     0.030     0.043     0.005     0.004     0.001     0.004    99.635     0.108     0.000 .00000E+00 0.000E+00 0.000E+00 0.000E+00 0.000E+00 0.000E+00
BIGSUB   7        0    6.15360E+00   204.500     0.000   138.145    83.634    79.804     2.590    34.698     4.019   130.203     0.028     0.040     0.005     0.003     0.002     0.004    91.237     0.100     0.000 .00000E+00 0.000E+00 0.000E+00 0.000E+00 0.000E+00 0.000E+00
BIGSUB   8        0    6.53384E+00   204.500     0.000   138.195    82.633    90.193     4.318    32.284     6.835   133.367     0.185     0.064     0.008     0.004     0.001     0.006    93.854     0.102     0.001 .00000E+00 0.000E+00 0.000E+00 0.000E+00 0.000E+00 0.000E+00
BIGSUB   9        0    6.98704E-01   204.500     0.000   138.456    82.993    79.832     1.907    39.941     1.116   130.441     0.264     0.116     0.014     0.005     0.002     0.011    89.261     0.100     0.000 .00000E+00 0.000E+00 0.000E+00 0.000E+00 0.000E+00 0.000E+00
BIGSUB  10        0    6.68026E-01   204.500     0.000   138.562    94.906    49.347     3.088    59.974     2.648   118.309     0.008     0.022     0.003     0.005     0.007     0.002    55.444     0.068     0.000 .00000E+00 0.000E+00 0.000E+00 0.000E+00 0.000E+00 0.000E+00
BIGSUB  11        0    6.23701E-01   204.500     0.000   138.481   102.540    62.410    14.802    64.856    22.607   120.319     0.002     0.008     0.001     0.001     0.010     0.001    31.619     0.036     0.002 .00000E+00 0.000E+00 0.000E+00 0.000E+00 0.000E+00 0.000E+00
BIGSUB  12        0    6.37963E-01   204.500     0.000   138.551    96.263    53.716     6.253    57.689     7.783   119.725     0.007     0.020     0.002     0.002     0.007     0.002    53.744     0.064     0.001 .00000E+00 0.000E+00 0.000E+00 0.000E+00 0.000E+00 0.000E+00
BIGSUB  13        0    6.15893E+00   204.500     0.000   138.464    87.694    60.231     1.037    54.017     0.094   124.576     0.051     0.035     0.004     0.004     0.006     0.003    70.383     0.079     0.000 .00000E+00 0.000E+00 0.000E+00 0.000E+00 0.000E+00 0.000E+00
BIGSUB  14        0    6.63610E-02   204.500     0.000   138.611   111.650     0.065     0.368    98.888     0.000    98.942     0.000     0.000     0.000     0.001     0.016     0.000     0.000     0.000     0.000 .00000E+00 0.000E+00 0.000E+00 0.000E+00 0.000E+00 0.000E+00
BIGSUB  15        0    6.11081E-01   204.500     0.000   138.605    74.454    61.408    21.445    62.567    19.429   133.794     0.005     0.024     0.003     0.042     0.004     0.002    50.650     0.088     0.006 .00000E+00 0.000E+00 0.000E+00 0.000E+00 0.000E+00 0.000E+00
BIGSUB   1        0    7.10517E+00   729.100     0.000   111.617    64.438    93.237     3.113   453.897     0.038   629.851     1.575     2.212     0.273     0.013     0.019     0.207   175.891     0.265     0.000 .00000E+00 0.000E+00 0.000E+00 0.000E+00 0.000E+00 0.000E+00
BIGSUB   2        0    7.11953E+00   729.100     0.000   111.649    64.935    90.807     4.425   462.955     0.209   629.609     2.234     2.086     0.264     0.020     0.025     0.192   166.392     0.260     0.000 .00000E+00 0.000E+00 0.000E+00 0.000E+00 0.000E+00 0.000E+00
[...]
BIGSUB   4        0   10.20992E+00   159.000     0.000   160.862    85.721    90.587     1.047     9.731     0.912    67.587     0.034     0.066     0.008     0.004     0.001     0.006    56.631     0.076     0.000 .00000E+00 0.000E+00 0.000E+00 0.000E+00 0.000E+00 0.000E+00
BIGSUB   5        0   10.12754E+00   159.000     0.000   159.680    79.526    75.030     0.179     2.862     0.092    73.176     0.038     0.080     0.010     0.001     0.000     0.008    70.128     0.074     0.000 .00000E+00 0.000E+00 0.000E+00 0.000E+00 0.000E+00 0.000E+00
BIGSUB   6        0   10.26718E+00   159.000     0.000   159.791    78.084    72.199     0.171     2.424     0.007    74.852     0.051     0.086     0.011     0.001     0.000     0.008    72.362     0.072     0.000 .00000E+00 0.000E+00 0.000E+00 0.000E+00 0.000E+00 0.000E+00
BIGSUB   7        0   10.15360E+00   159.000     0.000   159.882    79.710    72.337     1.270     5.469     1.205    72.936     0.046     0.079     0.010     0.001     0.001     0.007    66.081     0.071     0.000 .00000E+00 0.000E+00 0.000E+00 0.000E+00 0.000E+00 0.000E+00
BIGSUB   8        0   10.53384E+00   159.000     0.000   159.828    79.740    82.163     1.795     4.140     1.749    73.377     0.152     0.086     0.010     0.002     0.000     0.008    67.218     0.070     0.000 .00000E+00 0.000E+00 0.000E+00 0.000E+00 0.000E+00 0.000E+00
BIGSUB   9        0   10.98704E-01   159.000     0.000   159.551    79.526    72.582     0.565     8.581     0.105    72.997     0.197     0.101     0.013     0.007     0.001     0.010    64.205     0.079     0.000 .00000E+00 0.000E+00 0.000E+00 0.000E+00 0.000E+00 0.000E+00
BIGSUB  10        0   10.68026E-01   159.000     0.000   159.437    89.961    53.208     0.717    23.488     0.401    62.131     0.024     0.062     0.008     0.003     0.003     0.006    38.081     0.053     0.000 .00000E+00 0.000E+00 0.000E+00 0.000E+00 0.000E+00 0.000E+00
BIGSUB  11        0   10.23701E-01   159.000     0.000   159.523    96.616    71.693     6.323    28.883     6.083    55.534     0.005     0.020     0.002     0.001     0.004     0.002    19.821     0.035     0.000 .00000E+00 0.000E+00 0.000E+00 0.000E+00 0.000E+00 0.000E+00
BIGSUB  12        0   10.37963E-01   159.000     0.000   159.449    91.750    60.226     2.008    22.368     1.758    60.725     0.023     0.064     0.008     0.001     0.003     0.006    36.287     0.057     0.000 .00000E+00 0.000E+00 0.000E+00 0.000E+00 0.000E+00 0.000E+00
BIGSUB  13        0   10.15893E+00   159.000     0.000   159.542    83.041    57.278     0.124    19.359     0.032    69.901     0.053     0.062     0.008     0.002     0.003     0.006    50.431     0.055     0.000 .00000E+00 0.000E+00 0.000E+00 0.000E+00 0.000E+00 0.000E+00
BIGSUB  14        0   10.63610E-02   159.000     0.000   159.386    99.981    10.213     0.430    52.012     0.000    52.056     0.000     0.000     0.000     0.001     0.008     0.000     0.000     0.000     0.000 .00000E+00 0.000E+00 0.000E+00 0.000E+00 0.000E+00 0.000E+00
BIGSUB  15        0   10.11081E-01   159.000     0.000   159.391    77.913    65.923    12.632    26.335     2.384    62.799     0.015     0.047     0.006     0.026     0.002     0.004    33.499     0.076     0.000 .00000E+00 0.000E+00 0.000E+00 0.000E+00 0.000E+00 0.000E+00
BIGSUB   1        0   11.10517E+00   334.500     0.000   145.038    81.969    70.197     0.085   101.880     0.012   257.068     3.148     5.864     0.718     0.005     0.005     0.558   155.138     0.310     0.000 .00000E+00 0.000E+00 0.000E+00 0.000E+00 0.000E+00 0.000E+00
BIGSUB   2        0   11.11953E+00   334.500     0.000   144.964    82.372    69.289     0.280   110.209     0.114   256.219     2.560     4.977     0.610     0.008     0.006     0.474   145.841     0.296     0.000 .00000E+00 0.000E+00 0.000E+00 0.000E+00 0.000E+00 0.000E+00
BIGSUB   3        0   11.14970E+00   334.500     0.000   144.945    89.700    67.651     5.190   129.880     0.706   248.385     1.777     3.787     0.463     0.004     0.013     0.357   117.664     0.241     0.000 .00000E+00 0.000E+00 0.000E+00 0.000E+00 0.000E+00 0.000E+00
BIGSUB   4        0   11.20992E+00   334.500     0.000   145.897    87.355    86.587    10.995   111.653     2.473   247.774     1.926     4.184     0.514     0.007     0.010     0.396   133.378     0.290     0.000 .00000E+00 0.000E+00 0.000E+00 0.000E+00 0.000E+00 0.000E+00
BIGSUB   5        0   11.12754E+00   334.500     0.000   145.003    82.570    76.435     0.491   101.113     0.185   255.080     2.352     5.433     0.665     0.005     0.004     0.515   153.711     0.309     0.000 .00000E+00 0.000E+00 0.000E+00 0.000E+00 0.000E+00 0.000E+00
BIGSUB   6        0   11.26718E+00   334.500     0.000   145.061    81.380    72.545     0.453    97.256     0.134   257.370     3.658     6.352     0.778     0.006     0.003     0.605   159.936     0.320     0.000 .00000E+00 0.000E+00 0.000E+00 0.000E+00 0.000E+00 0.000E+00
BIGSUB   7        0   11.15360E+00   334.500     0.000   145.109    82.644    71.910     4.872   105.202     1.885   254.026     3.338     5.722     0.701     0.006     0.006     0.544   146.782     0.296     0.001 .00000E+00 0.000E+00 0.000E+00 0.000E+00 0.000E+00 0.000E+00
BIGSUB   8        0   11.53384E+00   334.500     0.000   145.081    82.544    81.300     8.096    98.241     2.742   252.512     3.793     5.967     0.730     0.006     0.004     0.567   151.294     0.304     0.001 .00000E+00 0.000E+00 0.000E+00 0.000E+00 0.000E+00 0.000E+00
BIGSUB   9        0   11.98704E-01   334.500     0.000   144.935    82.424    73.319     1.248   114.619     0.453   255.029     2.608     4.797     0.590     0.010     0.006     0.459   139.875     0.308     0.000 .00000E+00 0.000E+00 0.000E+00 0.000E+00 0.000E+00 0.000E+00
BIGSUB  10        0   11.68026E-01   334.500     0.000   144.875    93.057    49.466     3.220   162.339     0.649   245.678     1.002     2.998     0.367     0.006     0.018     0.283    82.560     0.169     0.000 .00000E+00 0.000E+00 0.000E+00 0.000E+00 0.000E+00 0.000E+00
BIGSUB  11        0   11.23701E-01   334.500     0.000   144.921    99.402    61.093    26.850   169.156     9.337   231.144     0.321     1.391     0.170     0.002     0.024     0.125    51.976     0.114     0.003 .00000E+00 0.000E+00 0.000E+00 0.000E+00 0.000E+00 0.000E+00
BIGSUB  12        0   11.37963E-01   334.500     0.000   144.882    94.358    53.806     9.524   159.867     2.624   242.774     0.826     2.797     0.342     0.003     0.018     0.263    80.012     0.174     0.001 .00000E+00 0.000E+00 0.000E+00 0.000E+00 0.000E+00 0.000E+00
BIGSUB  13        0   11.15893E+00   334.500     0.000   144.931    86.699    56.261     0.403   142.341     0.043   252.017     1.693     3.829     0.469     0.005     0.013     0.363   109.574     0.220     0.000 .00000E+00 0.000E+00 0.000E+00 0.000E+00 0.000E+00 0.000E+00
BIGSUB  14        0   11.63610E-02   334.500     0.000   144.849   105.195     0.008     0.896   238.955     0.000   238.994     0.000     0.000     0.000     0.002     0.037     0.000     0.000     0.000     0.000 .00000E+00 0.000E+00 0.000E+00 0.000E+00 0.000E+00 0.000E+00
BIGSUB  15        0   11.11081E-01   334.500     0.000   144.851    73.605    58.043    30.755   166.468    10.085   252.021     0.505     1.935     0.237     0.056     0.017     0.180    74.889     0.182     0.003 .00000E+00 0.000E+00 0.000E+00 0.000E+00 0.000E+00 0.000E+00
BIGSUB   1        0   12.10517E+00   398.800     0.000   134.164    87.902    87.712     0.759    86.823     0.033   289.600     6.596     7.737     0.947     0.004     0.004     0.739   202.715     0.297     0.000 .00000E+00 0.000E+00 0.000E+00 0.000E+00 0.000E+00 0.000E+00
BIGSUB   2        0   12.11953E+00   398.800     0.000   134.053    88.490    85.029     2.084    98.128     0.162   289.748     5.151     6.912     0.847     0.009     0.005     0.659   191.413     0.299     0.000 .00000E+00 0.000E+00 0.000E+00 0.000E+00 0.000E+00 0.000E+00
BIGSUB   3        0   12.14970E+00   398.800     0.000   134.025    95.694    80.563     8.021   125.311     2.263   282.166     3.640     4.811     0.588     0.002     0.014     0.456   154.449     0.239     0.000 .00000E+00 0.000E+00 0.000E+00 0.000E+00 0.000E+00 0.000E+00
BIGSUB   4        0   12.20992E+00   398.800     0.000   134.990    92.984    99.973    16.561    98.331     5.456   279.500     3.947     5.446     0.668     0.006     0.009     0.518   175.417     0.297     0.001 .00000E+00 0.000E+00 0.000E+00 0.000E+00 0.000E+00 0.000E+00
BIGSUB   5        0   12.12754E+00   398.800     0.000   134.112    88.212    90.332     4.016    85.293     0.309   289.862     4.974     7.605     0.930     0.004     0.003     0.723   204.199     0.330     0.000 .00000E+00 0.000E+00 0.000E+00 0.000E+00 0.000E+00 0.000E+00
BIGSUB   6        0   12.26718E+00   398.800     0.000   134.199    87.361    90.332     1.205    80.337     0.265   289.553     7.673     8.255     1.010     0.004     0.002     0.789   208.912     0.308     0.000 .00000E+00 0.000E+00 0.000E+00 0.000E+00 0.000E+00 0.000E+00
BIGSUB   7        0   12.15360E+00   398.800     0.000   134.270    89.053    88.813     7.529    91.409     2.939   285.316     7.009     7.503     0.918     0.005     0.006     0.715   190.803     0.300     0.001 .00000E+00 0.000E+00 0.000E+00 0.000E+00 0.000E+00 0.000E+00
BIGSUB   8        0   12.53384E+00   398.800     0.000   134.228    88.155    98.356    11.882    81.078     4.719   283.259     7.626     7.595     0.929     0.005     0.002     0.724   197.210     0.295     0.002 .00000E+00 0.000E+00 0.000E+00 0.000E+00 0.000E+00 0.000E+00
BIGSUB   9        0   12.98704E-01   398.800     0.000   134.010    88.531    87.839     4.736   103.102     0.766   288.914     5.074     6.794     0.834     0.009     0.005     0.651   184.969     0.322     0.000 .00000E+00 0.000E+00 0.000E+00 0.000E+00 0.000E+00 0.000E+00
BIGSUB  10        0   12.68026E-01   398.800     0.000   133.921    99.158    57.419     9.173   165.522     1.278   281.973     1.956     4.137     0.506     0.014     0.019     0.391   115.040     0.229     0.000 .00000E+00 0.000E+00 0.000E+00 0.000E+00 0.000E+00 0.000E+00
BIGSUB  11        0   12.23701E-01   398.800     0.000   133.989   104.264    70.941    38.139   177.061    15.506   260.537     0.593     1.811     0.221     0.002     0.026     0.163    67.212     0.116     0.005 .00000E+00 0.000E+00 0.000E+00 0.000E+00 0.000E+00 0.000E+00
BIGSUB  12        0   12.37963E-01   398.800     0.000   133.930    99.430    61.868    17.205   159.450     4.043   276.399     1.546     3.854     0.471     0.002     0.019     0.363   112.613     0.222     0.001 .00000E+00 0.000E+00 0.000E+00 0.000E+00 0.000E+00 0.000E+00
BIGSUB  13        0   12.15893E+00   398.800     0.000   134.004    93.138    67.945     3.454   141.769     0.061   288.361     3.515     5.469     0.669     0.005     0.014     0.519   146.480     0.242     0.000 .00000E+00 0.000E+00 0.000E+00 0.000E+00 0.000E+00 0.000E+00
BIGSUB  14        0   12.63610E-02   398.800     0.000   133.881   113.245     7.178     0.879   277.477     0.000   277.516     0.000     0.000     0.000     0.001     0.043     0.000     0.000     0.000     0.000 .00000E+00 0.000E+00 0.000E+00 0.000E+00 0.000E+00 0.000E+00
BIGSUB  15        0   12.11081E-01   398.800     0.000   133.885    94.119    65.150    39.379   156.249    17.354   273.673     0.942     2.793     0.342     0.180     0.025     0.260    99.338     0.316     0.006 .00000E+00 0.000E+00 0.000E+00 0.000E+00 0.000E+00 0.000E+00
BIGSUB   1        0 2016.10517E+00  3003.700     0.000  1726.040   829.429    87.712    13.440   774.906     0.332  2168.700    10.837    15.655     1.916     0.040     0.030     1.494  1392.582     1.233     0.000 .00000E+00 0.000E+00 0.000E+00 0.000E+00 0.000E+00 0.000E+00
BIGSUB   2        0 2016.11953E+00  3003.700     0.000  1725.917   833.300    85.029    19.423   843.003     2.646  2161.598    10.607    14.913     1.829     0.173     0.039     1.427  1314.721     1.373     0.000 .00000E+00 0.000E+00 0.000E+00 0.000E+00 0.000E+00 0.000E+00
BIGSUB   3        0 2016.14970E+00  3003.700     0.000  1725.886   887.609    80.563    49.515  1023.723    36.547  2114.326     5.985     9.772     1.195     0.027     0.105     0.925  1051.104     0.954     0.003 .00000E+00 0.000E+00 0.000E+00 0.000E+00 0.000E+00 0.000E+00
BIGSUB   4        0 2016.20992E+00  3003.700     0.000  1733.706   881.947    99.973    97.527   849.133    83.416  2129.852     6.709    11.391     1.404     0.146     0.071     1.068  1191.598     1.473     0.009 .00000E+00 0.000E+00 0.000E+00 0.000E+00 0.000E+00 0.000E+00
BIGSUB   5        0 2016.12754E+00  3003.700     0.000  1725.982   835.029    90.332    26.749   749.606     3.707  2153.934     8.091    14.773     1.808     0.040     0.024     1.404  1398.961     1.306     0.001 .00000E+00 0.000E+00 0.000E+00 0.000E+00 0.000E+00 0.000E+00
BIGSUB   6        0 2016.26718E+00  3003.700     0.000  1726.079   827.723    90.332    15.937   731.572     2.608  2170.351    12.540    16.847     2.062     0.043     0.020     1.608  1435.149     1.303     0.001 .00000E+00 0.000E+00 0.000E+00 0.000E+00 0.000E+00 0.000E+00
BIGSUB   7        0 2016.15360E+00  3003.700     0.000  1726.157   843.740    88.813    52.962   803.914    41.597  2159.146    11.463    15.383     1.884     0.050     0.043     1.462  1310.541     1.425     0.007 .00000E+00 0.000E+00 0.000E+00 0.000E+00 0.000E+00 0.000E+00
BIGSUB   8        0 2016.53384E+00  3003.700     0.000  1726.111   837.485    98.356    80.144   738.469    67.961  2165.918    14.834    16.950     2.073     0.046     0.023     1.623  1354.823     1.254     0.011 .00000E+00 0.000E+00 0.000E+00 0.000E+00 0.000E+00 0.000E+00
BIGSUB   9        0 2016.98704E-01  3003.700     0.000  1725.869   837.252    87.839    31.690   872.061    11.449  2154.695    12.008    16.211     1.994     0.229     0.038     1.554  1269.269     1.637     0.005 .00000E+00 0.000E+00 0.000E+00 0.000E+00 0.000E+00 0.000E+00
BIGSUB  10        0 2016.68026E-01  3003.700     0.000  1725.769   913.188    57.419    48.650  1276.673    28.351  2081.823     3.282     8.061     0.986     0.266     0.141     0.762   774.010     0.918     0.002 .00000E+00 0.000E+00 0.000E+00 0.000E+00 0.000E+00 0.000E+00
BIGSUB  11        0 2016.23701E-01  3003.700     0.000  1725.845   964.026    70.941   228.772  1362.686   219.872  2054.276     1.006     3.557     0.435     0.016     0.194     0.321   458.834     0.468     0.035 .00000E+00 0.000E+00 0.000E+00 0.000E+00 0.000E+00 0.000E+00
BIGSUB  12        0 2016.37963E-01  3003.700     0.000  1725.778   920.766    61.868    96.442  1243.215    78.857  2079.691     2.638     7.477     0.914     0.022     0.141     0.704   752.145     0.787     0.009 .00000E+00 0.000E+00 0.000E+00 0.000E+00 0.000E+00 0.000E+00
BIGSUB  13        0 2016.15893E+00  3003.700     0.000  1725.861   859.016    67.945    22.144  1126.967     2.619  2133.292     6.283    10.893     1.333     0.038     0.107     1.037  1002.361     0.934     0.000 .00000E+00 0.000E+00 0.000E+00 0.000E+00 0.000E+00 0.000E+00
BIGSUB  14        0 2016.63610E-02  3003.700     0.000  1725.723   988.985     7.178    10.413  2016.322     0.000  2016.806     0.000     0.000     0.000     0.010     0.311     0.000     0.000     0.000     0.000 .00000E+00 0.000E+00 0.000E+00 0.000E+00 0.000E+00 0.000E+00
BIGSUB  15        0 2016.11081E-01  3003.700     0.000  1725.728   911.242    65.150   214.781  1218.817   193.806  2091.863     1.628     5.622     0.690     4.123     0.120     0.513   667.458     2.585     0.063 .00000E+00 0.000E+00 0.000E+00 0.000E+00 0.000E+00 0.000E+00
BIGSUB   1        0  4.0.10517E+00  3445.525     0.000  1685.444   919.987    87.712    13.089   943.073     0.361  2511.670    34.536    41.473     5.075     0.039     0.037     4.041  1567.552     1.577     0.000 .00000E+00 0.000E+00 0.000E+00 0.000E+00 0.000E+00 0.000E+00
BIGSUB   2        0  4.0.11953E+00  3445.524     0.000  1685.570   924.608    85.029    19.630  1020.689     2.711  2503.310    27.701    39.754     4.870     0.245     0.051     3.856  1478.893     1.706     0.000 .00000E+00 0.000E+00 0.000E+00 0.000E+00 0.000E+00 0.000E+00
BIGSUB   3        0  4.0.14970E+00  3445.525     0.000  1685.602   985.435    80.563    55.836  1215.879    36.454  2441.948    19.300    27.767     3.396     0.026     0.126     2.672  1186.766     1.214     0.005 .00000E+00 0.000E+00 0.000E+00 0.000E+00 0.000E+00 0.000E+00
BIGSUB   4        0  4.0.20992E+00  3445.525     0.000  1692.672   973.712    99.973   111.086  1020.896    85.813  2458.035    20.878    31.571     3.879     0.230     0.089     3.017  1345.679     1.755     0.013 .00000E+00 0.000E+00 0.000E+00 0.000E+00 0.000E+00 0.000E+00
BIGSUB   5        0  4.0.12754E+00  3445.525     0.000  1685.504   925.951    90.332    27.853   915.625     3.948  2495.364    25.062    41.731     5.105     0.040     0.032     4.036  1574.355     1.665     0.001 .00000E+00 0.000E+00 0.000E+00 0.000E+00 0.000E+00 0.000E+00
BIGSUB   6        0  4.0.26718E+00  3445.525     0.000  1685.404   917.809    90.332    15.943   894.445     2.834  2513.597    40.139    42.915     5.252     0.044     0.026     4.190  1615.490     1.654     0.001 .00000E+00 0.000E+00 0.000E+00 0.000E+00 0.000E+00 0.000E+00
BIGSUB   7        0  4.0.15360E+00  3445.525     0.000  1685.321   935.499    88.813    58.601   975.066    42.567  2495.299    36.635    38.656     4.735     0.065     0.055     3.765  1474.684     1.722     0.010 .00000E+00 0.000E+00 0.000E+00 0.000E+00 0.000E+00 0.000E+00
BIGSUB   8        0  4.0.53384E+00  3445.525     0.000  1685.370   927.679    98.356    89.385   901.839    69.499  2500.746    41.393    41.525     5.080     0.048     0.029     4.042  1524.867     1.578     0.015 .00000E+00 0.000E+00 0.000E+00 0.000E+00 0.000E+00 0.000E+00
BIGSUB   9        0  4.0.98704E-01  3445.524     0.000  1685.619   927.557    87.839    33.696  1055.615    11.858  2496.202    27.839    40.346     4.957     0.291     0.052     3.913  1426.999     1.885     0.006 .00000E+00 0.000E+00 0.000E+00 0.000E+00 0.000E+00 0.000E+00
BIGSUB  10        0  4.0.68026E-01  3445.525     0.000  1685.720  1014.050    57.419    54.671  1500.121    28.237  2406.062     9.910    23.797     2.910     0.399     0.170     2.282   874.915     1.122     0.003 .00000E+00 0.000E+00 0.000E+00 0.000E+00 0.000E+00 0.000E+00
BIGSUB  11        0  4.0.23701E-01  3445.525     0.000  1685.643  1069.658    70.941   261.087  1595.658   225.863  2351.685     3.360    12.820     1.566     0.016     0.232     1.169   516.946     0.569     0.048 .00000E+00 0.000E+00 0.000E+00 0.000E+00 0.000E+00 0.000E+00
BIGSUB  12        0  4.0.37963E-01  3445.524     0.000  1685.709  1021.408    61.868   109.547  1461.291    78.585  2396.894     8.045    23.153     2.830     0.022     0.170     2.205   851.455     1.001     0.013 .00000E+00 0.000E+00 0.000E+00 0.000E+00 0.000E+00 0.000E+00
BIGSUB  13        0  4.0.15893E+00  3445.524     0.000  1685.627   954.045    67.945    23.404  1338.687     2.543  2470.264    17.951    30.185     3.694     0.040     0.130     2.919  1127.828     1.198     0.000 .00000E+00 0.000E+00 0.000E+00 0.000E+00 0.000E+00 0.000E+00
BIGSUB  14        0  4.0.63610E-02  3445.525     0.000  1685.765  1107.004     7.178    11.616  2325.715     0.000  2326.312     0.000     0.000     0.000     0.012     0.366     0.000     0.000     0.000     0.000 .00000E+00 0.000E+00 0.000E+00 0.000E+00 0.000E+00 0.000E+00
BIGSUB  15        0  4.0.11081E-01  3445.525     0.000  1685.760  1004.397    65.150   247.753  1436.419   207.220  2411.384     4.916    16.907     2.071     4.940     0.168     1.589   755.238     2.552     0.097 .00000E+00 0.000E+00 0.000E+00 0.000E+00 0.000E+00 0.000E+00
