1
    SWAT Dec 23 2016    VER 2016/Rev 664                                                                 0/ 0/   0      0: 0: 0

    General Input/Output section (file.cio):                                        
    2/7/2020 21:54:14 QSWAT Workflow v1.5.2                                         
                                                                                    
         Number of years in run:   12
         Area of watershed:        2.071 km2
1
    SWAT Dec 23 2016    VER 2016/Rev 664                                            

    General Input/Output section (file.cio):                                        
    2/7/2020 21:54:14 QSWAT Workflow v1.5.2                                         
                                                                                    
Annual Summary for Watershed in year    1 of simulation

UNIT                                    PERCO    TILE                           WATER     SED     NO3     NO3     NO3     NO3        N       P       P
TIME     PREC    SURQ    LATQ     GWQ    LATE       Q     SW       ET     PET   YIELD   YIELD    SURQ    LATQ    PERC    CROP  ORGANIC SOLUBLE ORGANIC TILENO3
         (mm)    (mm)    (mm)    (mm)    (mm)    (mm)    (mm)    (mm)    (mm)    (mm)   (t/ha)  ------------------(kg nutrient/ha)-------------------- (kg/ha)
1
    SWAT Dec 23 2016    VER 2016/Rev 664                                            

    General Input/Output section (file.cio):                                        
    2/7/2020 21:54:14 QSWAT Workflow v1.5.2                                         
                                                                                    
Annual Summary for Watershed in year    2 of simulation

UNIT                                    PERCO    TILE                           WATER     SED     NO3     NO3     NO3     NO3        N       P       P
TIME     PREC    SURQ    LATQ     GWQ    LATE       Q     SW       ET     PET   YIELD   YIELD    SURQ    LATQ    PERC    CROP  ORGANIC SOLUBLE ORGANIC TILENO3
         (mm)    (mm)    (mm)    (mm)    (mm)    (mm)    (mm)    (mm)    (mm)    (mm)   (t/ha)  ------------------(kg nutrient/ha)-------------------- (kg/ha)
1
    SWAT Dec 23 2016    VER 2016/Rev 664                                            

    General Input/Output section (file.cio):                                        
    2/7/2020 21:54:14 QSWAT Workflow v1.5.2                                         
                                                                                    
Annual Summary for Watershed in year    3 of simulation

UNIT                                    PERCO    TILE                           WATER     SED     NO3     NO3     NO3     NO3        N       P       P
TIME     PREC    SURQ    LATQ     GWQ    LATE       Q     SW       ET     PET   YIELD   YIELD    SURQ    LATQ    PERC    CROP  ORGANIC SOLUBLE ORGANIC TILENO3
         (mm)    (mm)    (mm)    (mm)    (mm)    (mm)    (mm)    (mm)    (mm)    (mm)   (t/ha)  ------------------(kg nutrient/ha)-------------------- (kg/ha)
1
    SWAT Dec 23 2016    VER 2016/Rev 664                                            

    General Input/Output section (file.cio):                                        
    2/7/2020 21:54:14 QSWAT Workflow v1.5.2                                         
                                                                                    
Annual Summary for Watershed in year    4 of simulation

UNIT                                    PERCO    TILE                           WATER     SED     NO3     NO3     NO3     NO3        N       P       P
TIME     PREC    SURQ    LATQ     GWQ    LATE       Q     SW       ET     PET   YIELD   YIELD    SURQ    LATQ    PERC    CROP  ORGANIC SOLUBLE ORGANIC TILENO3
         (mm)    (mm)    (mm)    (mm)    (mm)    (mm)    (mm)    (mm)    (mm)    (mm)   (t/ha)  ------------------(kg nutrient/ha)-------------------- (kg/ha)
1
    SWAT Dec 23 2016    VER 2016/Rev 664                                            

    General Input/Output section (file.cio):                                        
    2/7/2020 21:54:14 QSWAT Workflow v1.5.2                                         
                                                                                    
Annual Summary for Watershed in year    5 of simulation

UNIT                                    PERCO    TILE                           WATER     SED     NO3     NO3     NO3     NO3        N       P       P
TIME     PREC    SURQ    LATQ     GWQ    LATE       Q     SW       ET     PET   YIELD   YIELD    SURQ    LATQ    PERC    CROP  ORGANIC SOLUBLE ORGANIC TILENO3
         (mm)    (mm)    (mm)    (mm)    (mm)    (mm)    (mm)    (mm)    (mm)    (mm)   (t/ha)  ------------------(kg nutrient/ha)-------------------- (kg/ha)
1
    SWAT Dec 23 2016    VER 2016/Rev 664                                            

    General Input/Output section (file.cio):                                        
    2/7/2020 21:54:14 QSWAT Workflow v1.5.2                                         
                                                                                    
Annual Summary for Watershed in year    6 of simulation

UNIT                                    PERCO    TILE                           WATER     SED     NO3     NO3     NO3     NO3        N       P       P
TIME     PREC    SURQ    LATQ     GWQ    LATE       Q     SW       ET     PET   YIELD   YIELD    SURQ    LATQ    PERC    CROP  ORGANIC SOLUBLE ORGANIC TILENO3
         (mm)    (mm)    (mm)    (mm)    (mm)    (mm)    (mm)    (mm)    (mm)    (mm)   (t/ha)  ------------------(kg nutrient/ha)-------------------- (kg/ha)
1
    SWAT Dec 23 2016    VER 2016/Rev 664                                            

    General Input/Output section (file.cio):                                        
    2/7/2020 21:54:14 QSWAT Workflow v1.5.2                                         
                                                                                    
Annual Summary for Watershed in year    7 of simulation

UNIT                                    PERCO    TILE                           WATER     SED     NO3     NO3     NO3     NO3        N       P       P
TIME     PREC    SURQ    LATQ     GWQ    LATE       Q     SW       ET     PET   YIELD   YIELD    SURQ    LATQ    PERC    CROP  ORGANIC SOLUBLE ORGANIC TILENO3
         (mm)    (mm)    (mm)    (mm)    (mm)    (mm)    (mm)    (mm)    (mm)    (mm)   (t/ha)  ------------------(kg nutrient/ha)-------------------- (kg/ha)
1
    SWAT Dec 23 2016    VER 2016/Rev 664                                            

    General Input/Output section (file.cio):                                        
    2/7/2020 21:54:14 QSWAT Workflow v1.5.2                                         
                                                                                    
Annual Summary for Watershed in year    8 of simulation

UNIT                                    PERCO    TILE                           WATER     SED     NO3     NO3     NO3     NO3        N       P       P
TIME     PREC    SURQ    LATQ     GWQ    LATE       Q     SW       ET     PET   YIELD   YIELD    SURQ    LATQ    PERC    CROP  ORGANIC SOLUBLE ORGANIC TILENO3
         (mm)    (mm)    (mm)    (mm)    (mm)    (mm)    (mm)    (mm)    (mm)    (mm)   (t/ha)  ------------------(kg nutrient/ha)-------------------- (kg/ha)
1
    SWAT Dec 23 2016    VER 2016/Rev 664                                            

    General Input/Output section (file.cio):                                        
    2/7/2020 21:54:14 QSWAT Workflow v1.5.2                                         
                                                                                    
Annual Summary for Watershed in year    9 of simulation

UNIT                                    PERCO    TILE                           WATER     SED     NO3     NO3     NO3     NO3        N       P       P
TIME     PREC    SURQ    LATQ     GWQ    LATE       Q     SW       ET     PET   YIELD   YIELD    SURQ    LATQ    PERC    CROP  ORGANIC SOLUBLE ORGANIC TILENO3
         (mm)    (mm)    (mm)    (mm)    (mm)    (mm)    (mm)    (mm)    (mm)    (mm)   (t/ha)  ------------------(kg nutrient/ha)-------------------- (kg/ha)
    1  576.60  187.23  262.03    5.60   17.87    0.00   95.35   89.16  117.41  455.12   13.55    0.01    0.38    0.37    0.00    23.70    0.02    2.89    0.00
    2  144.70   49.34   78.62    6.53    5.47    0.00   49.06   66.53  106.85  134.85    6.80    0.04    0.11    0.13    5.25     5.94    0.00    0.73    0.00
    3   93.80    3.32   34.13    4.98    0.02    0.00   23.87   81.54  115.43   42.81    0.03    0.01    0.02    0.00    1.42     0.02    0.00    0.00    0.00
    4  238.90   38.97   94.58    1.11    0.31    0.00   55.01   59.87  112.44  134.94    0.18    0.00    0.02    0.00    0.35     0.10    0.00    0.01    0.00
    5  134.70    8.63   67.74    0.47    0.81    0.00   47.45   77.84  133.69   77.14    0.03    0.00    0.05    0.00    0.01     0.01    0.00    0.00    0.00
    6  299.10  109.36  111.61    0.87    2.52    0.00   60.38   62.51   88.60  222.04    0.40    0.00    0.17    0.02    0.00     0.30    0.01    0.04    0.00
    7  248.80   28.11  131.91    1.64    4.18    0.00   69.29   75.69  103.09  161.84    0.12    0.02    0.18    0.05    0.13     0.08    0.00    0.01    0.00
    8  467.80  176.81  194.30    3.38    8.45    0.00   83.16   73.75  112.70  374.68    1.40    0.01    0.19    0.12    0.02     1.72    0.01    0.21    0.00
    9  166.70   23.59   67.08    4.55    1.65    0.00   74.61   83.13  150.47   95.43    0.42    0.00    0.04    0.02    0.01     0.39    0.00    0.05    0.00
   10  234.50   59.78   82.72    3.20    2.23    0.00   81.84   76.71  163.66  145.89    1.76    0.01    0.09    0.03    0.00     1.64    0.00    0.20    0.00
   11  180.90   32.15   71.74    1.89    1.62    0.00   80.42   77.39  150.04  105.97    1.60    0.00    0.08    0.03    0.00     1.27    0.00    0.16    0.00
   12  309.80   62.35  137.13    2.36    4.66    0.00   86.08   98.30  145.92  202.01    5.42    0.00    0.19    0.10    0.00     3.61    0.00    0.44    0.00

 2013 3096.30  779.66 1333.58   36.58   49.80    0.00   86.08  922.41 1500.30 2152.72   31.71    0.10    1.52    0.89    7.19    38.77    0.06    4.74    0.00
1
    SWAT Dec 23 2016    VER 2016/Rev 664                                            

    General Input/Output section (file.cio):                                        
    2/7/2020 21:54:14 QSWAT Workflow v1.5.2                                         
                                                                                    
Annual Summary for Watershed in year   10 of simulation

UNIT                                    PERCO    TILE                           WATER     SED     NO3     NO3     NO3     NO3        N       P       P
TIME     PREC    SURQ    LATQ     GWQ    LATE       Q     SW       ET     PET   YIELD   YIELD    SURQ    LATQ    PERC    CROP  ORGANIC SOLUBLE ORGANIC TILENO3
         (mm)    (mm)    (mm)    (mm)    (mm)    (mm)    (mm)    (mm)    (mm)    (mm)   (t/ha)  ------------------(kg nutrient/ha)-------------------- (kg/ha)
    1  549.60  197.66  244.85    4.85   14.55    0.00   85.44   98.60  142.85  447.58   11.27    0.01    0.34    0.26    0.00    25.41    0.02    3.10    0.00
    2  351.60   89.75  150.81    4.84    6.76    0.00   87.62   99.36  144.23  245.63    0.52    0.09    0.11    0.06    6.09     0.81    0.00    0.10    0.00
    3  222.80   45.49   83.03    5.24    1.91    0.00   54.91  128.55  167.28  134.04    0.14    0.01    0.01    0.00    1.62     0.09    0.00    0.01    0.00
    4  466.60   93.01  204.93    3.70    6.92    0.00   90.76  116.21  131.91  301.89    0.24    0.01    0.05    0.03    0.49     0.11    0.01    0.01    0.00
    5  221.20   49.62   99.56    4.19    2.84    0.00   87.51   80.71  141.54  153.66    0.11    0.00    0.11    0.01    0.01     0.06    0.00    0.01    0.00
    6  204.50   38.53   86.67    3.88    2.93    0.00   79.83   84.87  138.35  129.33    0.09    0.00    0.10    0.02    0.00     0.05    0.00    0.01    0.00
    7  729.10  460.48  159.31    3.14   10.76    0.00   94.25   66.59  111.68  623.06    1.82    0.01    0.24    0.11    0.08     2.00    0.03    0.25    0.00
    8  116.20    7.65   65.57    4.11    1.86    0.00   76.32   75.43  134.78   77.72    0.05    0.00    0.07    0.03    0.02     0.03    0.00    0.00    0.00
    9  109.60   12.58   41.91    2.19    0.47    0.00   74.44   56.98  137.74   56.94    0.18    0.00    0.05    0.01    0.02     0.18    0.00    0.02    0.00
   10   90.50   12.07   34.93    0.79    0.46    0.00   65.71   51.70  176.65   48.01    0.22    0.00    0.04    0.01    0.01     0.26    0.00    0.03    0.00
   11  332.20   66.53  154.82    1.11    4.98    0.00   81.87   89.16  134.81  222.63    2.16    0.00    0.28    0.10    0.00     2.33    0.00    0.29    0.00
   12  450.40  151.91  182.00    2.98    8.81    0.00   89.46   99.10  147.47  337.08    4.61    0.01    0.24    0.17    0.00     6.10    0.01    0.75    0.00

 2014 3844.30 1225.27 1508.38   41.02   63.26    0.00   89.46 1047.26 1709.29 2777.57   21.42    0.16    1.65    0.81    8.35    37.42    0.08    4.58    0.00
1
    SWAT Dec 23 2016    VER 2016/Rev 664                                            

    General Input/Output section (file.cio):                                        
    2/7/2020 21:54:14 QSWAT Workflow v1.5.2                                         
                                                                                    
Annual Summary for Watershed in year   11 of simulation

UNIT                                    PERCO    TILE                           WATER     SED     NO3     NO3     NO3     NO3        N       P       P
TIME     PREC    SURQ    LATQ     GWQ    LATE       Q     SW       ET     PET   YIELD   YIELD    SURQ    LATQ    PERC    CROP  ORGANIC SOLUBLE ORGANIC TILENO3
         (mm)    (mm)    (mm)    (mm)    (mm)    (mm)    (mm)    (mm)    (mm)    (mm)   (t/ha)  ------------------(kg nutrient/ha)-------------------- (kg/ha)
    1  682.50  263.78  283.15    5.65   20.08    0.00   93.87  103.05  139.12  552.82   20.92    0.01    0.39    0.41    0.00    33.08    0.02    4.04    0.00
    2  310.40   83.25  138.63    7.27    6.07    0.00   74.29  110.48  148.67  229.49    6.79    0.09    0.15    0.10    5.67     5.05    0.01    0.62    0.00
    3  174.40   12.56   65.96    6.29    0.48    0.00   70.40   98.98  136.40   85.19    0.06    0.00    0.00    0.00    1.44     0.02    0.00    0.00    0.00
    4  364.50  122.50  131.11    3.43    4.02    0.00   77.83   99.40  144.86  257.38    0.40    0.00    0.03    0.01    0.38     0.16    0.01    0.02    0.00
    5  421.40  121.74  186.48    4.06    9.34    0.00   89.13   91.72  126.15  312.60    0.27    0.01    0.17    0.05    0.06     0.13    0.01    0.02    0.00
    6  230.40   56.40   99.27    4.50    4.23    0.00   86.33   72.57  162.59  160.47    0.15    0.01    0.11    0.03    0.00     0.08    0.00    0.01    0.00
    7  101.30    6.38   40.64    3.56    0.85    0.00   68.89   72.03  169.97   50.88    0.02    0.00    0.04    0.01    0.08     0.01    0.00    0.00    0.00
    8  171.70   46.03   70.19    1.56    1.84    0.00   64.36   58.18  172.03  118.04    0.20    0.00    0.12    0.03    0.02     0.23    0.00    0.03    0.00
    9   30.50    0.11    8.19    0.90    0.00    0.00   57.35   29.33  151.19    9.41    0.00    0.00    0.02    0.00    0.01     0.00    0.00    0.00    0.00
   10  211.10   39.73   95.15    0.65    2.23    0.00   65.60   65.30  148.23  135.70    0.46    0.00    0.18    0.04    0.00     0.59    0.00    0.07    0.00
   11  541.90  223.47  209.63    1.22   10.47    0.00   87.85   73.50  149.01  434.47    9.03    0.00    0.34    0.21    0.00     9.43    0.01    1.16    0.00
   12  597.70  303.09  193.07    3.92   12.21    0.00   92.41   81.03  160.23  500.27   19.12    0.00    0.25    0.23    0.00     8.70    0.01    1.07    0.00

 2015 3837.80 1279.04 1521.47   43.02   71.83    0.00   92.41  955.58 1808.45 2846.72   57.42    0.14    1.79    1.10    7.66    57.47    0.07    7.04    0.00
1
    SWAT Dec 23 2016    VER 2016/Rev 664                                            

    General Input/Output section (file.cio):                                        
    2/7/2020 21:54:14 QSWAT Workflow v1.5.2                                         
                                                                                    
Annual Summary for Watershed in year   12 of simulation

UNIT                                    PERCO    TILE                           WATER     SED     NO3     NO3     NO3     NO3        N       P       P
TIME     PREC    SURQ    LATQ     GWQ    LATE       Q     SW       ET     PET   YIELD   YIELD    SURQ    LATQ    PERC    CROP  ORGANIC SOLUBLE ORGANIC TILENO3
         (mm)    (mm)    (mm)    (mm)    (mm)    (mm)    (mm)    (mm)    (mm)    (mm)   (t/ha)  ------------------(kg nutrient/ha)-------------------- (kg/ha)
    1  122.10    9.48   55.38    6.08    1.54    0.00   68.53   85.38  179.19   71.23    0.51    0.00    0.04    0.03    0.00     0.69    0.00    0.08    0.00
    2  182.20   16.28   79.54    3.86    0.93    0.00   63.61   90.02  176.55   99.94    0.06    0.05    0.09    0.01    6.42     0.09    0.00    0.01    0.00
    3  302.60   56.54  122.68    2.31    3.19    0.00   81.15  101.10  136.37  181.78    0.16    0.00    0.01    0.00    1.55     0.18    0.00    0.02    0.00
    4  986.50  474.86  373.36    4.47   28.37    0.00   94.79   81.64   99.03  852.87    0.64    0.01    0.10    0.11    0.25     0.75    0.03    0.09    0.00
    5   55.90   17.20   46.86    8.67    2.80    0.00   67.61   31.58  132.63   73.22    0.02    0.00    0.03    0.02    0.02     0.03    0.00    0.00    0.00
    6    2.60    0.00    0.40    5.52    0.00    0.00   59.02   10.90  133.51    6.32    0.00    0.00    0.01    0.00    0.00     0.00    0.00    0.00    0.00
    7  132.20   29.83   48.52    1.84    0.58    0.00   71.55   40.73  126.43   80.53    0.10    0.01    0.13    0.01    0.09     0.21    0.00    0.03    0.00
    8  160.10   16.51   64.77    0.46    0.92    0.00   68.59   80.16  189.46   82.02    0.09    0.00    0.09    0.01    0.02     0.10    0.00    0.01    0.00
    9  167.20   17.12   71.54    0.94    1.49    0.00   72.02   74.02  114.45   89.82    0.16    0.00    0.11    0.03    0.01     0.25    0.00    0.03    0.00
   10  159.00    8.43   61.81    0.78    0.95    0.00   74.21   81.56  159.83   71.19    0.08    0.00    0.07    0.02    0.00     0.08    0.00    0.01    0.00
   11  334.50  112.20  138.39    1.44    4.88    0.00   72.91   84.46  145.11  252.18    2.78    0.01    0.28    0.12    0.00     5.10    0.01    0.62    0.00
   12  398.80  100.14  181.78    2.64    8.18    0.00   87.95   90.43  134.22  284.71    5.69    0.01    0.29    0.18    0.00     6.72    0.01    0.82    0.00

 2016 3003.70  858.60 1245.03   39.01   53.82    0.00   87.95  851.98 1726.79 2145.82   10.29    0.10    1.25    0.54    8.37    14.19    0.05    1.74    0.00
1
    SWAT Dec 23 2016    VER 2016/Rev 664                                            

    General Input/Output section (file.cio):                                        
    2/7/2020 21:54:14 QSWAT Workflow v1.5.2                                         
                                                                                    
    FINAL VALUES

1
    SWAT Dec 23 2016    VER 2016/Rev 664                                            

    General Input/Output section (file.cio):                                        
    2/7/2020 21:54:14 QSWAT Workflow v1.5.2                                         
                                                                                    
                                            Average Plant Values (kg/ha)

  HRU       1 SUB   1 SWCH  Yld = 24359.0 BIOM =  42104.0
  HRU       2 SUB   1 FRSE  Yld =  5210.7 BIOM =   7443.9
  HRU       3 SUB   1 FRSE  Yld =    46.0 BIOM =     65.7
  HRU       4 SUB   1 BARR  Yld =     0.0 BIOM =      0.7
  HRU       5 SUB   1 BARR  Yld =     0.0 BIOM =      0.9
  HRU       6 SUB   1 BARR  Yld =     0.0 BIOM =      0.7
  HRU       7 SUB   1 BARR  Yld =     0.0 BIOM =      0.7
  HRU       8 SUB   2 BARR  Yld =     0.0 BIOM =      0.7
  HRU       9 SUB   2 BARR  Yld =     0.0 BIOM =      0.9
  HRU      10 SUB   2 BARR  Yld =     0.0 BIOM =      0.7
  HRU      11 SUB   2 BARR  Yld =     0.0 BIOM =      0.9
  HRU      12 SUB   2 AGRL  Yld =  5518.8 BIOM =  15885.9
  HRU      13 SUB   2 SWCH  Yld = 16602.5 BIOM =  29101.6
  HRU      14 SUB   2 SWCH  Yld = 23296.2 BIOM =  40397.3
  HRU      15 SUB   2 FRSE  Yld =    46.0 BIOM =     65.7
  HRU      16 SUB   2 FRSE  Yld =    46.0 BIOM =     65.7
  HRU      17 SUB   2 FRSE  Yld =  2503.9 BIOM =   3577.0
  HRU      18 SUB   2 FRSE  Yld =  2497.9 BIOM =   3568.5
  HRU      19 SUB   2 FRSE  Yld =  5200.5 BIOM =   7429.3
  HRU      20 SUB   2 FRSD  Yld =    40.2 BIOM =     83.1
  HRU      21 SUB   2 FRSD  Yld =  3829.1 BIOM =   7886.4
  HRU      22 SUB   3 FRSE  Yld =  5802.7 BIOM =   8289.6
  HRU      23 SUB   3 FRSE  Yld =  5211.2 BIOM =   7444.6
  HRU      24 SUB   3 FRSE  Yld =    46.0 BIOM =     65.8
  HRU      25 SUB   3 FRSE  Yld =  5159.8 BIOM =   7371.1
  HRU      26 SUB   3 FRSE  Yld =    46.0 BIOM =     65.8
  HRU      27 SUB   3 FRSE  Yld =    46.0 BIOM =     65.8
  HRU      28 SUB   3 FRSE  Yld =  5139.8 BIOM =   7342.5
  HRU      29 SUB   4 FRSE  Yld =  5944.5 BIOM =   8492.1
  HRU      30 SUB   4 FRSE  Yld =    46.0 BIOM =     65.7
  HRU      31 SUB   4 FRSE  Yld =  5157.6 BIOM =   7368.0
  HRU      32 SUB   4 FRSE  Yld =  5953.5 BIOM =   8505.0
  HRU      33 SUB   4 FRSE  Yld =    46.0 BIOM =     65.7
  HRU      34 SUB   4 AGRL  Yld =  5679.5 BIOM =  16326.7
  HRU      35 SUB   4 AGRL  Yld =  5476.8 BIOM =  15796.6
  HRU      36 SUB   4 SWCH  Yld = 25408.2 BIOM =  43724.9
  HRU      37 SUB   4 SWCH  Yld = 22586.7 BIOM =  39275.9
  HRU      38 SUB   4 SWCH  Yld = 16602.1 BIOM =  29100.9
  HRU      39 SUB   4 FRSE  Yld =  5609.0 BIOM =   8012.9
  HRU      40 SUB   4 FRSE  Yld =    46.0 BIOM =     65.7
  HRU      41 SUB   4 FRSE  Yld =    46.0 BIOM =     65.7
  HRU      42 SUB   4 FRSE  Yld =    46.0 BIOM =     65.7
  HRU      43 SUB   4 FRSE  Yld =  5211.0 BIOM =   7444.3
  HRU      44 SUB   4 FRSD  Yld =  4263.9 BIOM =   8937.7
  HRU      45 SUB   4 FRSD  Yld =    40.2 BIOM =     83.1
  HRU      46 SUB   4 BARR  Yld =     0.0 BIOM =      0.7
  HRU      47 SUB   4 WATR  Yld =     0.0 BIOM =      0.0
  HRU      48 SUB   5 SWCH  Yld = 24485.6 BIOM =  42341.9
  HRU      49 SUB   5 FRSE  Yld =  2504.8 BIOM =   3578.3
  HRU      50 SUB   5 FRSE  Yld =  5138.9 BIOM =   7341.3
  HRU      51 SUB   5 FRSE  Yld =  2916.4 BIOM =   4166.3
  HRU      52 SUB   6 SWCH  Yld = 24487.2 BIOM =  42346.6
  HRU      53 SUB   6 FRSE  Yld =  5208.9 BIOM =   7441.3
  HRU      54 SUB   6 FRSE  Yld =  2721.6 BIOM =   3888.0
  HRU      55 SUB   7 SWCH  Yld = 21643.4 BIOM =  37775.3
  HRU      56 SUB   7 FRSE  Yld =  4540.3 BIOM =   6486.1
  HRU      57 SUB   7 FRSE  Yld =    46.0 BIOM =     65.7
  HRU      58 SUB   7 FRSE  Yld =  2505.7 BIOM =   3579.5
  HRU      59 SUB   7 FRSE  Yld =  5207.7 BIOM =   7439.6
  HRU      60 SUB   7 FRSD  Yld =  5062.5 BIOM =  10542.5
  HRU      61 SUB   7 FRSD  Yld =  4096.8 BIOM =   8476.1
  HRU      62 SUB   7 FRSD  Yld =  4935.7 BIOM =  10249.4
  HRU      63 SUB   7 FRSD  Yld =    42.1 BIOM =     88.1
  HRU      64 SUB   7 FRSD  Yld =  3821.8 BIOM =   7871.2
  HRU      65 SUB   7 FRSD  Yld =  4922.4 BIOM =  10221.2
  HRU      66 SUB   7 FRSD  Yld =    42.1 BIOM =     88.1
  HRU      67 SUB   7 FRSD  Yld =  3867.8 BIOM =   7967.0
  HRU      68 SUB   8 SWCH  Yld = 25401.7 BIOM =  43711.6
  HRU      69 SUB   8 SWCH  Yld = 22135.6 BIOM =  38562.4
  HRU      70 SUB   8 FRSE  Yld =  4005.7 BIOM =   5722.5
  HRU      71 SUB   8 FRSE  Yld =  4849.9 BIOM =   6928.5
  HRU      72 SUB   8 FRSE  Yld =    46.0 BIOM =     65.7
  HRU      73 SUB   8 FRSE  Yld =  2505.7 BIOM =   3579.6
  HRU      74 SUB   8 FRSE  Yld =  5208.2 BIOM =   7440.2
  HRU      75 SUB   8 BARR  Yld =     0.0 BIOM =      0.9
  HRU      76 SUB   8 BARR  Yld =     0.0 BIOM =      1.0
  HRU      77 SUB   8 BARR  Yld =     0.0 BIOM =      1.0
  HRU      78 SUB   8 BARR  Yld =     0.0 BIOM =      0.7
  HRU      79 SUB   8 BARR  Yld =     0.0 BIOM =      1.0
  HRU      80 SUB   9 BARR  Yld =     0.0 BIOM =      1.0
  HRU      81 SUB   9 BARR  Yld =     0.0 BIOM =      0.7
  HRU      82 SUB   9 BARR  Yld =     0.0 BIOM =      0.7
  HRU      83 SUB   9 BARR  Yld =     0.0 BIOM =      1.0
  HRU      84 SUB   9 AGRL  Yld =  5460.5 BIOM =  15756.4
  HRU      85 SUB   9 SWCH  Yld = 16602.5 BIOM =  29101.5
  HRU      86 SUB   9 SWCH  Yld = 24612.1 BIOM =  42582.1
  HRU      87 SUB   9 FRSE  Yld =  5173.6 BIOM =   7390.8
  HRU      88 SUB   9 FRSE  Yld =    46.0 BIOM =     65.8
  HRU      89 SUB   9 FRSD  Yld =  3859.9 BIOM =   7953.2
  HRU      90 SUB   9 FRSD  Yld =    40.2 BIOM =     83.1
  HRU      91 SUB  10 SWCH  Yld = 22542.6 BIOM =  39205.1
  HRU      92 SUB  10 SWCH  Yld = 16602.6 BIOM =  29101.8
  HRU      93 SUB  10 FRSE  Yld =    46.1 BIOM =     65.8
  HRU      94 SUB  10 FRSE  Yld =    46.1 BIOM =     65.8
  HRU      95 SUB  10 FRSE  Yld =  4837.1 BIOM =   6910.1
  HRU      96 SUB  10 FRSE  Yld =    45.8 BIOM =     65.4
  HRU      97 SUB  10 FRSE  Yld =  2888.3 BIOM =   4126.2
  HRU      98 SUB  10 FRSE  Yld =    45.8 BIOM =     65.4
  HRU      99 SUB  10 FRSE  Yld =    45.8 BIOM =     65.4
  HRU     100 SUB  10 FRSE  Yld =  3984.1 BIOM =   5691.6
  HRU     101 SUB  11 FRSE  Yld =  5306.5 BIOM =   7580.6
  HRU     102 SUB  11 FRSE  Yld =    45.8 BIOM =     65.4
  HRU     103 SUB  11 FRSD  Yld =  5034.7 BIOM =  10483.8
  HRU     104 SUB  11 FRSE  Yld =  4869.4 BIOM =   6956.2
  HRU     105 SUB  11 FRSE  Yld =    46.1 BIOM =     65.8
  HRU     106 SUB  11 FRSE  Yld =    46.1 BIOM =     65.8
  HRU     107 SUB  11 FRSE  Yld =  5217.3 BIOM =   7453.2
  HRU     108 SUB  11 FRSE  Yld =  5899.5 BIOM =   8427.8
  HRU     109 SUB  11 FRSE  Yld =    45.8 BIOM =     65.4
  HRU     110 SUB  12 FRSE  Yld =  4701.2 BIOM =   6716.0
  HRU     111 SUB  12 FRSE  Yld =    46.1 BIOM =     65.8
  HRU     112 SUB  12 FRSE  Yld =    46.1 BIOM =     65.8
  HRU     113 SUB  12 FRSE  Yld =    46.1 BIOM =     65.8
  HRU     114 SUB  12 FRSE  Yld =  2502.8 BIOM =   3575.4
  HRU     115 SUB  12 FRSE  Yld =  2488.9 BIOM =   3555.5
  HRU     116 SUB  12 FRSE  Yld =  4578.9 BIOM =   6541.3
  HRU     117 SUB  12 FRSE  Yld =    45.8 BIOM =     65.4
  HRU     118 SUB  12 FRSE  Yld =  2491.6 BIOM =   3559.4
  HRU     119 SUB  12 FRSE  Yld =  2842.3 BIOM =   4060.4
  HRU     120 SUB  12 FRSE  Yld =    45.8 BIOM =     65.4
  HRU     121 SUB  13 BARR  Yld =     0.0 BIOM =      0.7
  HRU     122 SUB  13 BARR  Yld =     0.0 BIOM =      0.7
  HRU     123 SUB  13 BARR  Yld =     0.0 BIOM =      0.7
  HRU     124 SUB  13 BARR  Yld =     0.0 BIOM =      0.9
  HRU     125 SUB  13 FRSE  Yld =    46.0 BIOM =     65.8
  HRU     126 SUB  13 FRSE  Yld =    46.0 BIOM =     65.8
  HRU     127 SUB  13 FRSE  Yld =    46.0 BIOM =     65.8
  HRU     128 SUB  13 FRSE  Yld =  2505.9 BIOM =   3579.9
  HRU     129 SUB  13 FRSE  Yld =  5127.1 BIOM =   7324.4
  HRU     130 SUB  13 FRSD  Yld =  3705.5 BIOM =   7628.0
  HRU     131 SUB  13 FRSD  Yld =    42.1 BIOM =     88.2
  HRU     132 SUB  13 FRSD  Yld =    42.1 BIOM =     88.2
  HRU     133 SUB  14 FRSD  Yld =    42.1 BIOM =     88.2
  HRU     134 SUB  14 FRSD  Yld =    42.1 BIOM =     88.2
  HRU     135 SUB  14 FRSE  Yld =    46.1 BIOM =     65.8
  HRU     136 SUB  14 FRSE  Yld =    46.1 BIOM =     65.8
  HRU     137 SUB  14 FRSE  Yld =    46.1 BIOM =     65.8
  HRU     138 SUB  14 FRSE  Yld =    46.1 BIOM =     65.8
  HRU     139 SUB  15 SWCH  Yld = 21990.1 BIOM =  38329.3
  HRU     140 SUB  15 SWCH  Yld = 16427.6 BIOM =  29151.1
  HRU     141 SUB  15 SWCH  Yld = 16427.6 BIOM =  29151.1
  HRU     142 SUB  15 SWCH  Yld = 24563.6 BIOM =  42499.3
  HRU     143 SUB  15 FRSE  Yld =    46.1 BIOM =     65.8
  HRU     144 SUB  15 FRSE  Yld =  4531.0 BIOM =   6472.9
  HRU     145 SUB  15 FRSE  Yld =  2438.9 BIOM =   3484.1
  HRU     146 SUB  15 FRSE  Yld =    45.8 BIOM =     65.4

    HRU STATISTICS

                AVE ANNUAL VALUES

   HRU  SUB  SOIL       AREAkm2    CN     AWCmm   USLE_LS  IRRmm  AUTONkh AUTOPkh  MIXEF PRECmm SURQGENmm   GWQmm    ETmm   SEDth  NO3kgh  ORGNkgh BIOMth   YLDth  SURQmm
      1   1   FAGASA     .103E-03   72.00   97.20    2.87    0.00  148.76    0.00    0.20 3445.52 1026.10 1331.44 1028.76    0.06   12.58    0.85   37.47   24.36 1026.10
      2   1   FAGASA     .102E+00   70.00   97.20   12.38    0.00    0.00    0.00    0.20 3445.52  893.68 1619.97  917.19   35.62    1.66   42.85    7.44    5.21  893.68
      3   1   URBAN LA   .205E-02   77.00    1.50    1.95    0.00    0.00    0.00    0.20 3445.52 2326.08    0.00 1106.63    0.00    0.01    0.00    0.07    0.05 2326.08
      4   1   URBAN LA   .103E-03   94.00    1.50    2.22    0.00    0.00    0.00    0.20 3445.52 2598.90    0.00  842.41    0.00    0.08    0.00    0.00    0.00 2598.90
      5   1   FAGASA     .103E-03   94.00   97.20    3.82    0.00    0.00    0.00    0.20 3445.52 2276.64  391.55  776.82   99.99    1.54   49.41    0.00    0.00 2276.64
      6   1   URBAN LA   .821E-03   94.00    1.50    1.65    0.00    0.00    0.00    0.20 3445.52 2598.91    0.00  842.42    0.00    0.08    0.00    0.00    0.00 2598.91
      7   1   URBAN LA   .308E-03   94.00    1.50    1.98    0.00    0.00    0.00    0.20 3445.52 2598.91    0.00  842.42    0.00    0.08    0.00    0.00    0.00 2598.92
      8   2   URBAN LA   .308E-03   94.00    1.50    1.84    0.00    0.00    0.00    0.20 3445.52 2598.93    0.00  842.40    0.00    0.08    0.00    0.00    0.00 2598.93
      9   2   FAGASA     .257E-02   94.00   97.20    3.69    0.00    0.00    0.00    0.20 3445.52 2283.02  384.30  777.68  142.63    1.53   49.66    0.00    0.00 2283.02
     10   2   URBAN LA   .205E-03   94.00    1.50    3.05    0.00    0.00    0.00    0.20 3445.52 2598.91    0.02  842.37    0.00    0.08    0.00    0.00    0.00 2598.91
     11   2   FAGASA     .616E-03   94.00   97.20    3.75    0.00    0.00    0.00    0.20 3445.52 2279.83  387.94  777.24  122.10    1.54   49.57    0.00    0.00 2279.83
     12   2   FAGASA     .616E-03   83.00   97.20    4.50    0.00  204.64    0.00    0.20 3445.52 1599.01  912.41  904.66   31.57   40.41   58.00   15.89    5.52 1599.01
     13   2   URBAN LA   .410E-03   79.00    1.50    1.91    0.00  202.14   11.78    0.20 3445.52 2447.53    0.00  984.62    0.00   29.23    0.00   25.52   16.60 2447.53
     14   2   FAGASA     .616E-03   72.00   97.20    4.61    0.00  150.71    0.00    0.20 3445.52  934.07 1481.31  993.91    0.24   17.09    3.36   35.88   23.30  934.07
     15   2   URBAN LA   .308E-03   77.00    1.50    0.08    0.00    0.00    0.00    0.20 3445.52 2326.16    0.00 1106.56    0.00    0.01    0.00    0.07    0.05 2325.38
     16   2   URBAN LA   .328E-02   77.00    1.50    2.75    0.00    0.00    0.00    0.20 3445.52 2326.14    0.01 1106.54    0.00    0.01    0.00    0.07    0.05 2326.14
     17   2   FAGASA     .103E-03   70.00   97.20    0.08    0.00    0.00    0.00    0.20 3445.52 1009.50 1325.20  996.96    0.09    0.02    1.67    3.58    2.50 1009.16
     18   2   FAGASA     .103E-03   70.00   97.20    0.17    0.00    0.00    0.00    0.20 3445.52 1009.39 1325.82  996.84    0.33    0.03    4.98    3.57    2.50 1009.33
     19   2   FAGASA     .108E+00   70.00   97.20    9.04    0.00    0.00    0.00    0.20 3445.52  901.84 1604.42  920.21   26.45    1.66   42.02    7.43    5.20  901.84
     20   2   URBAN LA   .154E-02   83.00    1.50    2.09    0.00    0.00    0.00    0.20 3445.52 2381.43    0.00 1055.51    0.00    0.02    0.00    0.09    0.06 2381.43
     21   2   FAGASA     .123E-02   77.00   97.20    4.08    0.00    0.00    0.00    0.20 3445.52 1265.12 1173.21  971.99    3.31    1.50   27.04    8.21    5.74 1265.12
     22   3   AUA        .291E-01   55.00  165.80    5.82    0.00    0.00    0.00    0.20 3445.52  495.66 1903.34  997.21    4.52    1.86   26.69    8.29    5.80  495.66
     23   3   FAGASA     .782E-01   70.00   97.20   12.59    0.00    0.00    0.00    0.20 3445.52  893.69 1620.05  917.16   35.15    1.66   42.81    7.44    5.21  893.69
     24   3   URBAN LA   .240E-01   77.00    1.50    2.02    0.00    0.00    0.00    0.20 3445.52 2326.17    0.00 1106.53    0.00    0.01    0.00    0.07    0.05 2326.17
     25   3   FAGASA     .718E-03   77.00   97.20    5.24    0.00    0.00    0.00    0.20 3445.52 1263.53 1207.21  940.18   11.83    1.63   38.83    7.37    5.16 1263.53
     26   3   URBAN LA   .128E-01   77.00    1.50    2.24    0.00    0.00    0.00    0.20 3445.52 2326.17    0.00 1106.53    0.00    0.01    0.00    0.07    0.05 2326.17
     27   3   URBAN LA   .472E-02   77.00    1.50    2.71    0.00    0.00    0.00    0.20 3445.52 2326.16    0.01 1106.52    0.00    0.01    0.00    0.07    0.05 2326.16
     28   3   FAGASA     .103E-03   77.00   97.20    5.08    0.00    0.00    0.00    0.20 3445.52 1266.24 1203.01  941.66    9.05    1.64   36.91    7.34    5.14 1266.24
     29   4   AUA        .523E-02   77.00  165.80    3.69    0.00    0.00    0.00    0.20 3445.52 1344.13 1057.21  999.94    6.71    1.65   32.33    8.49    5.94 1344.13
     30   4   URBAN LA   .421E-02   77.00    1.50    2.56    0.00    0.00    0.00    0.20 3445.52 2326.12    0.00 1106.57    0.00    0.01    0.00    0.07    0.05 2326.12
     31   4   FAGASA     .359E-02   77.00   97.20    5.27    0.00    0.00    0.00    0.20 3445.52 1263.13 1207.81  939.99   14.43    1.62   39.98    7.37    5.16 1263.13
     32   4   AUA        .359E-02   77.00  165.80    4.75    0.00    0.00    0.00    0.20 3445.52 1336.85 1074.21  994.03    8.24    1.80   34.07    8.51    5.95 1336.85
     33   4   URBAN LA   .308E-03   77.00    1.50    2.11    0.00    0.00    0.00    0.20 3445.52 2326.14    0.00 1106.57    0.00    0.01    0.00    0.07    0.05 2326.14
     34   4   AUA        .174E-02   77.00  165.80    7.62    0.00  199.20    0.00    0.20 3445.52 1324.93 1141.40  943.55   36.30   35.99   57.08   16.33    5.68 1324.93
     35   4   FAGASA     .718E-03   83.00   97.20    7.94    0.00  218.69    0.00    0.20 3445.52 1499.79 1065.56  877.51   53.39   44.63   61.14   15.80    5.48 1499.79
     36   4   AUA        .616E-03   59.00  165.80    3.07    0.00  142.86    0.00    0.20 3445.52  583.08 1747.36 1059.96    0.06   12.23    0.92   39.05   25.41  583.08
     37   4   FAGASA     .923E-03   72.00   97.20    7.26    0.00  149.82    0.00    0.20 3445.52  845.47 1605.51  974.86    0.37   18.09    5.00   34.82   22.59  845.47
     38   4   URBAN LA   .103E-03   79.00    1.50    3.25    0.00  202.16   11.78    0.20 3445.52 2447.47    0.02  984.64    0.00   29.23    0.00   25.52   16.60 2447.47
     39   4   AUA        .485E-01   55.00  165.80    3.92    0.00    0.00    0.00    0.20 3445.52  500.62 1882.46 1005.87    3.40    1.73   24.23    8.01    5.61  500.62
     40   4   URBAN LA   .103E-03   77.00    1.50    0.15    0.00    0.00    0.00    0.20 3445.52 2326.14    0.00 1106.58    0.00    0.01    0.00    0.07    0.05 2325.98
     41   4   URBAN LA   .410E-03   77.00    1.50    0.33    0.00    0.00    0.00    0.20 3445.52 2326.14    0.00 1106.58    0.00    0.01    0.00    0.07    0.05 2326.13
     42   4   URBAN LA   .194E-01   77.00    1.50    2.31    0.00    0.00    0.00    0.20 3445.52 2326.13    0.00 1106.57    0.00    0.01    0.00    0.07    0.05 2326.13
     43   4   FAGASA     .113E+00   70.00   97.20   12.11    0.00    0.00    0.00    0.20 3445.52  893.69 1619.91  917.17   35.35    1.66   42.82    7.44    5.21  893.69
     44   4   AUA        .246E-02   66.00  165.80    2.47    0.00    0.00    0.00    0.20 3445.52  869.88 1449.06 1042.92    0.85    0.77   10.40    9.14    6.40  869.88
     45   4   URBAN LA   .923E-03   83.00    1.50    2.78    0.00    0.00    0.00    0.20 3445.52 2381.41    0.01 1055.51    0.00    0.02    0.00    0.09    0.06 2381.41
     46   4   URBAN LA   .164E-02   94.00    1.50    3.23    0.00    0.00    0.00    0.20 3445.52 2598.92    0.01  842.39    0.00    0.08    0.00    0.00    0.00 2598.92
     47   4   URBAN LA   .236E-02   92.00    1.50    3.37    0.00    0.00    0.00    0.20 3445.52    0.00    0.00 1624.11    0.00    0.00    0.00    0.00    0.00    0.00
     48   5   FAGASA     .308E-03   72.00   97.20    2.61    0.00  148.52    0.00    0.20 3445.52 1038.18 1307.08 1032.04    0.11   10.88    1.55   37.67   24.49 1038.18
     49   5   FAGASA     .205E-03   70.00   97.20    0.07    0.00    0.00    0.00    0.20 3445.52 1009.52 1325.07  997.00    0.05    0.02    1.16    3.58    2.50 1007.68
     50   5   FAGASA     .127E+00   70.00   97.20    8.25    0.00    0.00    0.00    0.20 3445.52  915.06 1579.64  925.49   25.19    1.69   41.90    7.34    5.14  915.06
     51   5   FAGASA     .205E-03   70.00   97.20    3.40    0.00    0.00    0.00    0.20 3445.52  991.70 1409.28  983.35    8.77    1.30   37.53    4.17    2.92  991.70
     52   6   FAGASA     .133E-02   72.00   97.20    2.42    0.00  148.41    0.00    0.20 3445.52 1039.54 1304.09 1032.45    0.15   10.62    2.22   37.67   24.49 1039.54
     53   6   FAGASA     .266E+00   70.00   97.20   12.49    0.00    0.00    0.00    0.20 3445.52  893.68 1619.99  917.21   40.35    1.65   43.12    7.44    5.21  893.68
     54   6   FAGASA     .103E-03   70.00   97.20    2.97    0.00    0.00    0.00    0.20 3445.52  997.79 1391.51  986.37    7.44    1.05   36.22    3.89    2.72  997.79
     55   7   FAGASA     .267E-02   72.00   97.20   14.06    0.00  146.60    0.00    0.20 3445.52  757.24 1731.44  951.77    0.75   17.45    9.06   33.42   21.64  757.24
     56   7   AUA        .595E-02   55.00  165.80    3.00    0.00    0.00    0.00    0.20 3445.52  510.39 1811.08 1027.67    2.61    0.90   22.33    6.49    4.54  510.39
     57   7   URBAN LA   .298E-02   77.00    1.50    2.39    0.00    0.00    0.00    0.20 3445.52 2325.99    0.00 1106.69    0.00    0.01    0.00    0.07    0.05 2325.99
     58   7   FAGASA     .103E-03   70.00   97.20    0.07    0.00    0.00    0.00    0.20 3445.52 1009.51 1325.06  997.06    0.03    0.02    0.70    3.58    2.51 1007.67
     59   7   FAGASA     .128E+00   70.00   97.20   14.72    0.00    0.00    0.00    0.20 3445.52  893.67 1620.55  917.23   43.56    1.65   43.28    7.44    5.21  893.67
     60   7   AUA        .103E-03   66.00  165.80    4.39    0.00    0.00    0.00    0.20 3445.52  851.48 1526.22 1020.25    0.67    1.57    8.36   10.85    7.59  851.48
     61   7   FAGASA     .513E-02   77.00   97.20    7.96    0.00    0.00    0.00    0.20 3445.52 1178.39 1317.66  938.97    6.52    1.43   36.13    8.78    6.15 1178.39
     62   7   AUA        .154E-02   77.00  165.80    3.18    0.00    0.00    0.00    0.20 3445.52 1356.23  994.94 1036.18    1.23    0.98   13.60   10.58    7.40 1356.23
     63   7   URBAN LA   .349E-02   77.00    1.50    2.14    0.00    0.00    0.00    0.20 3445.52 2324.74    0.00 1107.93    0.00    0.01    0.00    0.09    0.06 2324.74
     64   7   FAGASA     .133E-02   77.00   97.20    4.03    0.00    0.00    0.00    0.20 3445.52 1265.84 1171.96  972.46    3.32    1.50   27.08    8.19    5.73 1265.84
     65   7   AUA        .205E-03   77.00  165.80    2.94    0.00    0.00    0.00    0.20 3445.52 1356.83  992.81 1036.85    0.86    0.96   10.32   10.55    7.38 1356.83
     66   7   URBAN LA   .215E-02   77.00    1.50    1.93    0.00    0.00    0.00    0.20 3445.52 2324.74    0.00 1107.93    0.00    0.01    0.00    0.09    0.06 2324.74
     67   7   FAGASA     .103E-03   77.00   97.20    4.23    0.00    0.00    0.00    0.20 3445.52 1262.24 1177.61  970.77    2.42    1.52   22.46    8.29    5.80 1262.24
     68   8   AUA        .410E-03   59.00  165.80    3.64    0.00  144.70    0.00    0.20 3445.52  577.69 1757.00 1059.01    0.06   13.29    0.97   39.04   25.40  577.69
     69   8   FAGASA     .616E-03   72.00   97.20    8.28    0.00  148.48    0.00    0.20 3445.52  805.46 1663.76  964.52    0.38   18.15    5.14   34.15   22.14  805.46
     70   8   AUA        .103E-03   55.00  165.80    0.38    0.00    0.00    0.00    0.20 3445.52  515.32 1757.55 1036.71    0.17    0.04    2.64    5.72    4.01  515.31
     71   8   AUA        .514E-01   55.00  165.80    3.91    0.00    0.00    0.00    0.20 3445.52  508.27 1832.43 1022.44    4.09    1.19   26.76    6.93    4.85  508.27
     72   8   URBAN LA   .144E-02   77.00    1.50    2.25    0.00    0.00    0.00    0.20 3445.52 2326.02    0.01 1106.66    0.00    0.01    0.00    0.07    0.05 2326.02
     73   8   FAGASA     .103E-03   70.00   97.20    0.07    0.00    0.00    0.00    0.20 3445.52 1009.52 1325.06  997.04    0.03    0.02    0.70    3.58    2.51 1007.68
     74   8   FAGASA     .463E+00   70.00   97.20   12.33    0.00    0.00    0.00    0.20 3445.52  893.67 1619.94  917.22   42.54    1.65   43.23    7.44    5.21  893.67
     75   8   FAGASA     .821E-03   91.00   97.20   13.09    0.00    0.00    0.00    0.20 3445.52 1895.88  766.52  782.58  369.25    1.71   49.84    0.00    0.00 1895.88
     76   8   AUA        .103E-03   91.00  165.80    0.44    0.00    0.00    0.00    0.20 3445.52 2293.73  153.84  954.57    7.31    0.33   37.63    0.00    0.00 2293.73
     77   8   AUA        .132E-01   91.00  165.80    3.67    0.00    0.00    0.00    0.20 3445.52 2268.80  227.11  917.01  124.94    1.55   46.54    0.00    0.00 2268.80
     78   8   URBAN LA   .205E-03   91.00    1.50    2.61    0.00    0.00    0.00    0.20 3445.52 2509.31    0.00  929.79    0.00    0.06    0.00    0.00    0.00 2509.31
     79   8   AUA        .215E-02   91.00  165.80    3.86    0.00    0.00    0.00    0.20 3445.52 2204.80  368.06  872.62  102.98    1.33   46.43    0.00    0.00 2204.80
     80   9   FAGASA     .400E-02   91.00   97.20    2.39    0.00    0.00    0.00    0.20 3445.52 2263.09  230.19  913.67   95.80    0.97   49.37    0.00    0.00 2263.09
     81   9   URBAN LA   .718E-03   91.00    1.50    2.65    0.00    0.00    0.00    0.20 3445.52 2509.46    0.00  929.68    0.00    0.06    0.00    0.00    0.00 2509.47
     82   9   URBAN LA   .410E-03   91.00    1.50    2.21    0.00    0.00    0.00    0.20 3445.52 2509.46    0.00  929.67    0.00    0.06    0.00    0.00    0.00 2509.46
     83   9   FAGASA     .185E-02   91.00   97.20    3.06    0.00    0.00    0.00    0.20 3445.52 2238.98  283.89  889.26  111.27    1.60   49.48    0.00    0.00 2238.98
     84   9   FAGASA     .113E-02   83.00   97.20    8.65    0.00  219.53    0.00    0.20 3445.52 1470.66 1102.07  871.52   60.28   45.14   61.48   15.76    5.46 1470.66
     85   9   URBAN LA   .103E-03   79.00    1.50    1.63    0.00  202.11   11.77    0.20 3445.52 2447.59    0.00  984.58    0.00   29.22    0.00   25.52   16.60 2447.59
     86   9   FAGASA     .103E-02   72.00   97.20    1.65    0.00  148.13    0.00    0.20 3445.52 1052.57 1273.87 1035.19    0.10    7.37    1.41   37.87   24.61 1052.57
     87   9   FAGASA     .835E-01   70.00   97.20    8.65    0.00    0.00    0.00    0.20 3445.52  908.99 1591.70  922.84   24.83    1.68   41.83    7.39    5.17  908.99
     88   9   URBAN LA   .144E-02   77.00    1.50    2.07    0.00    0.00    0.00    0.20 3445.52 2326.18    0.00 1106.52    0.00    0.01    0.00    0.07    0.05 2326.18
     89   9   FAGASA     .431E-02   77.00   97.20    4.34    0.00    0.00    0.00    0.20 3445.52 1260.34 1180.69  969.70    4.04    1.49   29.99    8.27    5.79 1260.34
     90   9   URBAN LA   .205E-03   83.00    1.50    2.55    0.00    0.00    0.00    0.20 3445.52 2381.47    0.00 1055.49    0.00    0.02    0.00    0.09    0.06 2381.47
     91  10   FAGASA     .616E-03   72.00   97.20    7.39    0.00  149.64    0.00    0.20 3445.52  840.75 1612.69  973.63    0.35   18.10    4.80   34.75   22.54  840.75
     92  10   URBAN LA   .821E-03   79.00    1.50    2.51    0.00  202.07   11.77    0.20 3445.52 2447.68    0.00  984.49    0.00   29.22    0.00   25.52   16.60 2447.68
     93  10   URBAN LA   .103E-02   77.00    1.50    0.40    0.00    0.00    0.00    0.20 3445.52 2326.26    0.00 1106.47    0.00    0.01    0.00    0.07    0.05 2326.25
     94  10   URBAN LA   .176E-01   77.00    1.50    2.76    0.00    0.00    0.00    0.20 3445.52 2326.25    0.00 1106.46    0.00    0.01    0.00    0.07    0.05 2326.25
     95  10   FAGASA     .360E-01   70.00   97.20    6.10    0.00    0.00    0.00    0.20 3445.52  944.01 1524.94  941.08   17.49    1.75   40.65    6.91    4.84  944.01
     96  10   URBAN LA   .646E-02   70.00    1.50    1.87    0.00    0.00    0.00    0.20 3445.52 2277.60    0.00 1149.30    0.00    0.01    0.00    0.07    0.05 2277.60
     97  10   FAGASA     .328E-02   70.00   97.20    3.30    0.00    0.00    0.00    0.20 3445.52  992.07 1408.20  983.51   12.00    1.27   39.58    4.13    2.89  992.07
     98  10   URBAN LA   .308E-03   70.00    1.50    0.42    0.00    0.00    0.00    0.20 3445.52 2277.61    0.00 1149.31    0.00    0.01    0.00    0.07    0.05 2277.60
     99  10   URBAN LA   .123E-02   70.00    1.50    1.28    0.00    0.00    0.00    0.20 3445.52 2277.61    0.00 1149.31    0.00    0.01    0.00    0.07    0.05 2277.61
    100  10   FAGASA     .616E-03   70.00   97.20    3.29    0.00    0.00    0.00    0.20 3445.52  971.70 1466.09  963.93    7.25    1.74   35.45    5.69    3.98  971.70
    101  11   AUA        .236E-02   70.00  165.80    2.89    0.00    0.00    0.00    0.20 3445.52 1031.61 1319.31 1022.80    4.11    1.02   27.73    7.58    5.31 1031.61
    102  11   URBAN LA   .534E-02   70.00    1.50    2.56    0.00    0.00    0.00    0.20 3445.52 2277.58    0.01 1149.31    0.00    0.01    0.00    0.07    0.05 2277.58
    103  11   AUA        .103E-03   66.00  165.80    4.10    0.00    0.00    0.00    0.20 3445.52  852.74 1522.65 1021.57    0.63    1.56    7.91   10.79    7.55  852.74
    104  11   AUA        .554E-02   55.00  165.80    3.99    0.00    0.00    0.00    0.20 3445.52  508.21 1833.62 1022.13    3.17    1.21   24.26    6.96    4.87  508.21
    105  11   URBAN LA   .103E-03   77.00    1.50    0.31    0.00    0.00    0.00    0.20 3445.52 2326.21    0.00 1106.51    0.00    0.01    0.00    0.07    0.05 2326.20
    106  11   URBAN LA   .698E-02   77.00    1.50    2.56    0.00    0.00    0.00    0.20 3445.52 2326.19    0.00 1106.50    0.00    0.01    0.00    0.07    0.05 2326.19
    107  11   FAGASA     .205E-02   70.00   97.20   13.33    0.00    0.00    0.00    0.20 3445.52  893.70 1620.25  917.14   24.04    1.67   41.65    7.45    5.22  893.70
    108  11   AUA        .616E-03   70.00  165.80    4.55    0.00    0.00    0.00    0.20 3445.52 1015.48 1383.44  999.83    4.80    1.72   28.77    8.43    5.90 1015.48
    109  11   URBAN LA   .616E-03   70.00    1.50    2.54    0.00    0.00    0.00    0.20 3445.52 2277.57    0.01 1149.30    0.00    0.01    0.00    0.07    0.05 2277.57
    110  12   AUA        .154E-02   55.00  165.80    2.82    0.00    0.00    0.00    0.20 3445.52  509.37 1820.52 1025.11    2.01    1.06   19.11    6.72    4.70  509.37
    111  12   URBAN LA   .103E-03   77.00    1.50    0.07    0.00    0.00    0.00    0.20 3445.52 2326.25    0.00 1106.47    0.00    0.01    0.00    0.07    0.05 2321.62
    112  12   URBAN LA   .103E-03   77.00    1.50    0.21    0.00    0.00    0.00    0.20 3445.52 2326.25    0.00 1106.47    0.00    0.01    0.00    0.07    0.05 2326.17
    113  12   URBAN LA   .852E-02   77.00    1.50    1.76    0.00    0.00    0.00    0.20 3445.52 2326.24    0.00 1106.46    0.00    0.01    0.00    0.07    0.05 2326.24
    114  12   FAGASA     .103E-03   70.00   97.20    0.10    0.00    0.00    0.00    0.20 3445.52 1009.48 1325.34  996.90    0.13    0.03    2.22    3.58    2.50 1009.29
    115  12   FAGASA     .205E-03   70.00   97.20    0.28    0.00    0.00    0.00    0.20 3445.52 1009.20 1326.90  996.59    0.73    0.05    9.80    3.56    2.49 1009.18
    116  12   FAGASA     .204E-01   70.00   97.20    5.01    0.00    0.00    0.00    0.20 3445.52  955.93 1501.83  949.69   14.38    1.76   39.74    6.54    4.58  955.93
    117  12   URBAN LA   .472E-02   70.00    1.50    2.58    0.00    0.00    0.00    0.20 3445.52 2277.61    0.00 1149.31    0.00    0.01    0.00    0.07    0.05 2277.61
    118  12   FAGASA     .103E-03   70.00   97.20    0.28    0.00    0.00    0.00    0.20 3445.52 1009.19 1326.89  996.61    0.65    0.05    8.81    3.56    2.49 1009.18
    119  12   FAGASA     .923E-03   70.00   97.20    2.92    0.00    0.00    0.00    0.20 3445.52  993.61 1404.10  984.36    9.24    1.22   37.92    4.06    2.84  993.61
    120  12   URBAN LA   .123E-02   70.00    1.50    2.65    0.00    0.00    0.00    0.20 3445.52 2277.61    0.00 1149.31    0.00    0.01    0.00    0.07    0.05 2277.61
    121  13   URBAN LA   .103E-03   94.00    1.50    2.61    0.00    0.00    0.00    0.20 3445.52 2598.94    0.00  842.38    0.00    0.08    0.00    0.00    0.00 2598.94
    122  13   URBAN LA   .267E-02   94.00    1.50    0.30    0.00    0.00    0.00    0.20 3445.52 2598.95    0.00  842.40    0.00    0.08    0.00    0.00    0.00 2598.96
    123  13   URBAN LA   .995E-02   94.00    1.50    1.69    0.00    0.00    0.00    0.20 3445.52 2598.95    0.00  842.39    0.00    0.08    0.00    0.00    0.00 2598.95
    124  13   FAGASA     .123E-02   94.00   97.20    3.52    0.00    0.00    0.00    0.20 3445.52 2291.49  374.62  778.89  125.09    1.52   49.59    0.00    0.00 2291.49
    125  13   URBAN LA   .103E-03   77.00    1.50    0.15    0.00    0.00    0.00    0.20 3445.52 2326.20    0.00 1106.52    0.00    0.01    0.00    0.07    0.05 2326.04
    126  13   URBAN LA   .380E-02   77.00    1.50    0.33    0.00    0.00    0.00    0.20 3445.52 2326.20    0.00 1106.52    0.00    0.01    0.00    0.07    0.05 2326.19
    127  13   URBAN LA   .234E-01   77.00    1.50    1.71    0.00    0.00    0.00    0.20 3445.52 2326.19    0.00 1106.51    0.00    0.01    0.00    0.07    0.05 2326.19
    128  13   FAGASA     .103E-03   70.00   97.20    0.07    0.00    0.00    0.00    0.20 3445.52 1009.53 1325.07  996.98    0.03    0.02    0.70    3.58    2.51 1007.69
    129  13   FAGASA     .110E+00   70.00   97.20    8.12    0.00    0.00    0.00    0.20 3445.52  917.01 1575.63  926.33   24.45    1.69   41.80    7.32    5.13  917.01
    130  13   FAGASA     .554E-02   77.00   97.20    3.42    0.00    0.00    0.00    0.20 3445.52 1276.22 1154.68  977.36    3.54    1.49   28.07    7.94    5.56 1276.22
    131  13   URBAN LA   .821E-03   77.00    1.50    0.38    0.00    0.00    0.00    0.20 3445.52 2324.97    0.00 1107.74    0.00    0.01    0.00    0.09    0.06 2324.96
    132  13   URBAN LA   .164E-02   77.00    1.50    1.65    0.00    0.00    0.00    0.20 3445.52 2324.95    0.00 1107.73    0.00    0.01    0.00    0.09    0.06 2324.95
    133  14   URBAN LA   .205E-03   77.00    1.50    0.44    0.00    0.00    0.00    0.20 3445.52 2325.06    0.00 1107.65    0.00    0.01    0.00    0.09    0.06 2325.06
    134  14   URBAN LA   .277E-02   77.00    1.50    0.85    0.00    0.00    0.00    0.20 3445.52 2325.06    0.00 1107.65    0.00    0.01    0.00    0.09    0.06 2325.06
    135  14   URBAN LA   .616E-03   77.00    1.50    0.36    0.00    0.00    0.00    0.20 3445.52 2326.29    0.00 1106.44    0.00    0.01    0.00    0.07    0.05 2326.28
    136  14   URBAN LA   .164E-02   77.00    1.50    0.85    0.00    0.00    0.00    0.20 3445.52 2326.29    0.00 1106.44    0.00    0.01    0.00    0.07    0.05 2326.29
    137  14   URBAN LA   .205E-03   77.00    1.50    0.36    0.00    0.00    0.00    0.20 3445.52 2326.29    0.00 1106.44    0.00    0.01    0.00    0.07    0.05 2326.28
    138  14   URBAN LA   .923E-03   77.00    1.50    0.82    0.00    0.00    0.00    0.20 3445.52 2326.29    0.00 1106.44    0.00    0.01    0.00    0.07    0.05 2326.29
    139  15   FAGASA     .205E-03   72.00   97.20    8.62    0.00  147.65    0.00    0.20 3445.52  792.90 1682.55  960.23    0.31   17.88    4.15   33.94   21.99  792.90
    140  15   URBAN LA   .103E-03   72.00    1.50    0.40    0.00  209.60   14.00    0.20 3445.52 2416.71    0.00 1008.52    0.00   24.56    0.00   25.37   16.43 2416.71
    141  15   URBAN LA   .195E-02   72.00    1.50    1.00    0.00  209.60   14.00    0.20 3445.52 2416.71    0.00 1008.52    0.00   24.56    0.00   25.37   16.43 2416.71
    142  15   FAGASA     .257E-02   72.00   97.20    2.12    0.00  148.19    0.00    0.20 3445.52 1050.22 1279.80 1034.39    0.15    8.16    2.16   37.80   24.56 1050.22
    143  15   URBAN LA   .133E-02   77.00    1.50    0.89    0.00    0.00    0.00    0.20 3445.52 2326.28    0.00 1106.44    0.00    0.01    0.00    0.07    0.05 2326.28
    144  15   FAGASA     .451E-02   70.00   97.20    4.82    0.00    0.00    0.00    0.20 3445.52  957.83 1497.99  951.20   11.70    1.77   38.53    6.47    4.53  957.83
    145  15   FAGASA     .205E-03   70.00   97.20    2.01    0.00    0.00    0.00    0.20 3445.52 1008.14 1336.81  994.63    5.94    0.22   34.12    3.48    2.44 1008.14
    146  15   URBAN LA   .205E-03   70.00    1.50    0.90    0.00    0.00    0.00    0.20 3445.52 2277.62    0.00 1149.31    0.00    0.01    0.00    0.07    0.05 2277.62



                AVE MONTHLY BASIN VALUES
                   SNOW                      WATER               SED
  MON     RAIN     FALL   SURF Q    LAT Q    YIELD       ET    YIELD      PET
          (MM)     (MM)     (MM)     (MM)     (MM)     (MM)   (T/HA)     (MM)
    1   482.70     0.00   164.54   211.35   381.69    94.05    11.56   144.64
    2   253.79     0.00    61.24   114.87   182.19    94.03     3.64   147.90
    3   198.40     0.00    29.48    76.45   110.96   102.54     0.10   138.87
    4   514.12     0.00   182.34   201.00   386.77    89.28     0.37   122.06
    5   208.30     0.00    49.30   100.16   154.15    70.46     0.11   133.50
    6   184.15     0.00    51.07    74.49   129.54    57.71     0.16   130.76
    7   302.85     0.00   131.20    95.09   229.08    63.76     0.52   127.79
    8   228.95     0.00    61.75    98.70   163.11    71.88     0.44   152.24
    9   118.50     0.00    13.35    47.18    62.90    60.87     0.19   138.46
   10   173.78     0.00    30.00    68.65   100.20    68.82     0.63   162.09
   11   347.37     0.00   108.59   143.65   253.81    81.13     3.89   144.74
   12   439.18     0.00   154.37   173.50   331.02    92.21     8.71   146.96

     AVE ANNUAL BASIN STRESS DAYS
               WATER STRESS DAYS =     3.71
               TEMPERATURE STRESS DAYS =     0.10
               NITROGEN STRESS DAYS =    12.87
               PHOSPHORUS STRESS DAYS =     0.18
               AERATION STRESS DAYS =     0.01
1
    SWAT Dec 23 2016    VER 2016/Rev 664                                            

    General Input/Output section (file.cio):                                        
    2/7/2020 21:54:14 QSWAT Workflow v1.5.2                                         
                                                                                    
         AVE ANNUAL BASIN VALUES

              PRECIP =   3445.5 MM
              SNOW FALL =    0.00 MM
              SNOW MELT =     0.00 MM
              SUBLIMATION =     0.00 MM
              SURFACE RUNOFF Q =  1035.64 MM
              LATERAL SOIL Q = 1402.11 MM
              TILE Q =     0.00 MM
              GROUNDWATER (SHAL AQ) Q =    39.91 MM
              GROUNDWATER (DEEP AQ) Q =     3.04 MM
              REVAP (SHAL AQ => SOIL/PLANTS) =   33.33 MM
              DEEP AQ RECHARGE =     2.96 MM
              TOTAL AQ RECHARGE =   59.29 MM
              TOTAL WATER YLD =  2480.70 MM
              PERCOLATION OUT OF SOIL =   59.67 MM
              ET =    944.3 MM
              PET =   1686.2MM
              TRANSMISSION LOSSES =     0.00 MM
              SEPTIC INFLOW =       0.00 MM
              TOTAL SEDIMENT LOADING =     30.21 T/HA
              TILE FROM IMPOUNDED WATER =     0.000 (MM)
              EVAPORATION FROM IMPOUNDED WATER =     0.000 (MM)
              SEEPAGE INTO SOIL FROM IMPOUNDED WATER =    0.000 (MM)
              OVERFLOW FROM IMPOUNDED WATER =    0.000 (MM)
1
    SWAT Dec 23 2016    VER 2016/Rev 664                                            

    General Input/Output section (file.cio):                                        
    2/7/2020 21:54:14 QSWAT Workflow v1.5.2                                         
                                                                                    
              AVE ANNUAL BASIN VALUES


              NUTRIENTS
                   ORGANIC N =    36.963 (KG/HA)
                   ORGANIC P =     4.526 (KG/HA)
                   NO3 YIELD (SQ) =     0.124 (KG/HA)
                   NO3 YIELD (LAT) =    1.551 (KG/HA)
                   NO3 YIELD (TILE) =    0.000 (KG/HA)
                   SOLP YIELD (TILE) =    0.000(KG/HA)
                   SOLP YIELD (SURF INLET RISER) =    0.000 (KG/HA)
                   SOL P YIELD =    0.066 (KG/HA)
                   NO3 LEACHED =     0.836 (KG/HA)
                   P LEACHED =     0.026 (KG/HA)
                   N UPTAKE =     7.894 (KG/HA)
                   P UPTAKE =    1.852 (KG/HA)
                   NO3 YIELD (GWQ) =     0.008 (KG/HA)
                   ACTIVE TO SOLUTION P FLOW =         0.076 (KG/HA)
                   ACTIVE TO STABLE P FLOW =         0.418 (KG/HA)
                   N FERTILIZER APPLIED =     1.629 (KG/HA)
                   P FERTILIZER APPLIED =     0.000 (KG/HA)
                   N FIXATION =     0.000 (KG/HA)
                   DENITRIFICATION =     0.171 (KG/HA)
                   HUMUS MIN ON ACTIVE ORG N =    11.091 (KG/HA)
                   ACTIVE TO STABLE ORG N =    -9.524 (KG/HA)
                   HUMUS MIN ON ACTIVE ORG P =    1.892 (KG/HA)
                   MIN FROM FRESH ORG N =    1.413 (KG/HA)
                   MIN FROM FRESH ORG P =    0.330 (KG/HA)
                   NO3 IN RAINFALL =     0.000 (KG/HA)
                   INITIAL NO3 IN SOIL =      34.654 (KG/HA)
                   FINAL NO3 IN SOIL =         6.181 (KG/HA)
                   INITIAL ORG N IN SOIL =   10492.400 (KG/HA)
                   FINAL ORG N IN SOIL =      9653.449 (KG/HA)
                   INITIAL MIN P IN SOIL =    1669.995 (KG/HA)
                   FINAL MIN P IN SOIL =      1604.351 (KG/HA)
                   INITIAL ORG P IN SOIL =    1285.319 (KG/HA)
                   FINAL ORG P IN SOIL =    1175.865 (KG/HA)
                   NO3 IN FERT =     1.629 (KG/HA)
                   AMMONIA IN FERT =     0.000 (KG/HA)
                   ORG N IN FERT =     0.000 (KG/HA)
                   MINERAL P IN FERT =     0.011 (KG/HA)
                   ORG P IN FERT =     0.000 (KG/HA)
                   N REMOVED IN YIELD =     6.211 (KG/HA)
                   P REMOVED IN YIELD =     1.460 (KG/HA)
                   AMMONIA VOLATILIZATION =     0.000 (KG/HA)
                   AMMONIA NITRIFICATION =      0.000 (KG/HA)
                   NO3 EVAP-LAYER 2 TO 1 =    3.516

                   DIE-GRO P Q =           0.0 (No/M2)
                   DIE-GRO LP Q =           0.0 (No/M2)
                   DIE-GRO P SED =          0.0 (No/M2)
                   DIE-GRO LP SED =          0.0 (No/M2)
                   BACT P RUNOFF =          0.0 (No/M2)
                   BACT LP RUNOFF =          0.0 (No/M2)
                   BACT P SEDIMENT =          0.0 (No/M2)
                   BACT LP SEDIMENT =          0.0 (No/M2)
                   BACT P INCORP =          0.0 (No/M2)
                   BACT LP INCORP =          0.0 (No/M2)

                   NITRATE SEPTIC =         0.00 (kg/ha)
                   AMMONIA SEPTIC =         0.00 (kg/ha)
                   ORG N SEPTIC =         0.00 (kg/ha)
                   FRESH ORGN SEPTIC =         0.00 (kg/ha)
                   ORG P SEPTIC =         0.00 (kg/ha)
                   FRESH ORGP SEPTIC =         0.00 (kg/ha)
                   SOL P SEPTIC =         0.00 (kg/ha)
                   BOD SEPTIC =         0.00 (kg/ha)
