1
    SWAT Dec 23 2016    VER 2016/Rev 664                                                                 0/ 0/   0      0: 0: 0

    General Input/Output section (file.cio):                                        
    2/7/2020 21:54:14 QSWAT Workflow v1.5.2                                         
                                                                                    


       RCH      GIS   MON     AREAkm2  FLOW_INcms FLOW_OUTcms     EVAPcms    TLOSScms  SED_INtons SED_OUTtons SEDCONCmg/L   ORGN_INkg  ORGN_OUTkg   ORGP_INkg  ORGP_OUTkg    NO3_INkg   NO3_OUTkg    NH4_INkg   NH4_OUTkg    NO2_INkg   NO2_OUTkg   MINP_INkg  MINP_OUTkg   CHLA_INkg  CHLA_OUTkg   CBOD_INkg  CBOD_OUTkg  DISOX_INkg DISOX_OUTkg SOLPST_INmgSOLPST_OUTmg SORPST_INmgSORPST_OUTmg  REACTPSTmg    VOLPSTmg  SETTLPSTmgRESUSP_PSTmgDIFFUSEPSTmgREACBEDPSTmg   BURYPSTmg   BED_PSTmg BACTP_OUTctBACTLP_OUTct  CMETAL#1kg  CMETAL#2kg  CMETAL#3kg     TOT Nkg     TOT Pkg NO3ConcMg/l    WTMPdegc
REACH    1        0     1  0.1052E+00  0.1815E-01  0.1815E-01  0.6894E-05  0.0000E+00  0.1707E+03  0.1707E+03  0.1467E+04  0.2916E+03  0.2912E+03  0.6429E+02  0.6419E+02  0.4319E+01  0.4316E+01  0.0000E+00  0.2035E+00  0.0000E+00  0.0000E+00  0.1085E+00  0.1825E+00  0.3074E+01  0.2937E+01  0.2116E+05  0.2102E+05  0.2967E+03  0.1376E+03  0.0000E+00  0.0000E+00  0.0000E+00  0.0000E+00  0.0000E+00  0.0000E+00  0.0000E+00  0.0000E+00  0.0000E+00  0.0000E+00  0.0000E+00  0.0000E+00  0.0000E+00  0.0000E+00  0.0000E+00  0.0000E+00  0.0000E+00  0.2958E+03  0.6437E+02  0.0000E+00  0.0000E+00
REACH    2        0     1  0.1195E+00  0.2055E-01  0.2055E-01  0.1648E-05  0.0000E+00  0.1396E+03  0.1396E+03  0.1091E+04  0.2928E+03  0.2928E+03  0.6451E+02  0.6448E+02  0.4924E+01  0.4923E+01  0.0000E+00  0.4401E-01  0.0000E+00  0.0000E+00  0.1586E+00  0.1746E+00  0.3298E+01  0.3267E+01  0.1957E+05  0.1954E+05  0.3330E+03  0.1338E+03  0.0000E+00  0.0000E+00  0.0000E+00  0.0000E+00  0.0000E+00  0.0000E+00  0.0000E+00  0.0000E+00  0.0000E+00  0.0000E+00  0.0000E+00  0.0000E+00  0.0000E+00  0.0000E+00  0.0000E+00  0.0000E+00  0.0000E+00  0.2977E+03  0.6466E+02  0.0000E+00  0.0000E+00
REACH    3        0     1  0.1497E+00  0.2526E-01  0.2525E-01  0.6904E-05  0.0000E+00  0.1354E+03  0.1354E+03  0.8362E+03  0.2590E+03  0.2587E+03  0.5690E+02  0.5683E+02  0.4664E+01  0.4661E+01  0.0000E+00  0.1526E+00  0.0000E+00  0.0000E+00  0.3896E+00  0.4445E+00  0.2527E+01  0.2440E+01  0.1673E+05  0.1663E+05  0.4668E+03  0.2003E+03  0.0000E+00  0.0000E+00  0.0000E+00  0.0000E+00  0.0000E+00  0.0000E+00  0.0000E+00  0.0000E+00  0.0000E+00  0.0000E+00  0.0000E+00  0.0000E+00  0.0000E+00  0.0000E+00  0.0000E+00  0.0000E+00  0.0000E+00  0.2635E+03  0.5727E+02  0.0000E+00  0.0000E+00
REACH    4        0     1  0.2099E+00  0.3521E-01  0.3521E-01  0.2618E-05  0.0000E+00  0.2028E+03  0.2028E+03  0.9073E+03  0.4048E+03  0.4047E+03  0.8878E+02  0.8875E+02  0.7846E+01  0.7845E+01  0.0000E+00  0.7501E-01  0.0000E+00  0.0000E+00  0.3891E+00  0.4161E+00  0.4183E+01  0.4142E+01  0.2573E+05  0.2569E+05  0.6109E+03  0.2769E+03  0.0000E+00  0.0000E+00  0.0000E+00  0.0000E+00  0.0000E+00  0.0000E+00  0.0000E+00  0.0000E+00  0.0000E+00  0.0000E+00  0.0000E+00  0.0000E+00  0.0000E+00  0.0000E+00  0.0000E+00  0.0000E+00  0.0000E+00  0.4126E+03  0.8916E+02  0.0000E+00  0.0000E+00
REACH    5        0     1  0.1275E+00  0.2185E-01  0.2185E-01  0.4757E-05  0.0000E+00  0.1460E+03  0.1460E+03  0.1045E+04  0.3244E+03  0.3242E+03  0.7140E+02  0.7134E+02  0.5485E+01  0.5483E+01  0.0000E+00  0.1277E+00  0.0000E+00  0.0000E+00  0.1167E+00  0.1630E+00  0.3459E+01  0.3366E+01  0.2006E+05  0.1997E+05  0.3517E+03  0.1713E+03  0.0000E+00  0.0000E+00  0.0000E+00  0.0000E+00  0.0000E+00  0.0000E+00  0.0000E+00  0.0000E+00  0.0000E+00  0.0000E+00  0.0000E+00  0.0000E+00  0.0000E+00  0.0000E+00  0.0000E+00  0.0000E+00  0.0000E+00  0.3298E+03  0.7150E+02  0.0000E+00  0.0000E+00
REACH    6        0     1  0.2672E+00  0.4612E-01  0.4611E-01  0.8021E-05  0.0000E+00  0.5048E+03  0.5048E+03  0.1712E+04  0.7872E+03  0.7867E+03  0.1736E+03  0.1735E+03  0.1136E+02  0.1136E+02  0.0000E+00  0.3171E+00  0.0000E+00  0.0000E+00  0.2204E+00  0.3357E+00  0.8307E+01  0.8118E+01  0.6063E+05  0.6035E+05  0.7456E+03  0.3571E+03  0.0000E+00  0.0000E+00  0.0000E+00  0.0000E+00  0.0000E+00  0.0000E+00  0.0000E+00  0.0000E+00  0.0000E+00  0.0000E+00  0.0000E+00  0.0000E+00  0.0000E+00  0.0000E+00  0.0000E+00  0.0000E+00  0.0000E+00  0.7984E+03  0.1738E+03  0.0000E+00  0.0000E+00
REACH    7        0     1  0.1536E+00  0.2623E-01  0.2622E-01  0.1403E-04  0.0000E+00  0.2628E+03  0.2628E+03  0.1568E+04  0.3924E+03  0.3917E+03  0.8653E+02  0.8633E+02  0.6342E+01  0.6334E+01  0.0000E+00  0.3908E+00  0.0000E+00  0.0000E+00  0.2352E+00  0.3767E+00  0.4143E+01  0.3859E+01  0.3100E+05  0.3066E+05  0.4374E+03  0.2045E+03  0.0000E+00  0.0000E+00  0.0000E+00  0.0000E+00  0.0000E+00  0.0000E+00  0.0000E+00  0.0000E+00  0.0000E+00  0.0000E+00  0.0000E+00  0.0000E+00  0.0000E+00  0.0000E+00  0.0000E+00  0.0000E+00  0.0000E+00  0.3985E+03  0.8670E+02  0.0000E+00  0.0000E+00
REACH    8        0     1  0.5338E+00  0.9051E-01  0.9048E-01  0.2928E-04  0.0000E+00  0.9669E+03  0.9669E+03  0.1721E+04  0.1488E+04  0.1487E+04  0.3281E+03  0.3276E+03  0.2190E+02  0.2188E+02  0.0000E+00  0.1030E+01  0.0000E+00  0.0000E+00  0.4563E+00  0.8296E+00  0.1658E+02  0.1597E+02  0.1182E+06  0.1174E+06  0.1459E+04  0.6083E+03  0.0000E+00  0.0000E+00  0.0000E+00  0.0000E+00  0.0000E+00  0.0000E+00  0.0000E+00  0.0000E+00  0.0000E+00  0.0000E+00  0.0000E+00  0.0000E+00  0.0000E+00  0.0000E+00  0.0000E+00  0.0000E+00  0.0000E+00  0.1510E+04  0.3285E+03  0.0000E+00  0.0000E+00
REACH    9        0     1  0.4934E+00  0.8487E-01  0.8486E-01  0.9388E-05  0.0000E+00  0.7565E+03  0.5663E+02  0.1916E+03  0.1342E+04  0.1341E+04  0.2957E+03  0.2955E+03  0.2096E+02  0.2096E+02  0.4448E+00  0.8373E+00  0.0000E+00  0.1174E-03  0.6380E+00  0.7806E+00  0.1429E+02  0.1410E+02  0.9621E+05  0.9589E+05  0.7957E+03  0.5814E+03  0.0000E+00  0.0000E+00  0.0000E+00  0.0000E+00  0.0000E+00  0.0000E+00  0.0000E+00  0.0000E+00  0.0000E+00  0.0000E+00  0.0000E+00  0.0000E+00  0.0000E+00  0.0000E+00  0.0000E+00  0.0000E+00  0.0000E+00  0.1363E+04  0.2963E+03  0.0000E+00  0.0000E+00
REACH   10        0     1  0.6810E+00  0.1169E+00  0.1168E+00  0.1946E-04  0.0000E+00  0.2248E+03  0.6529E+02  0.1676E+03  0.1721E+04  0.1720E+04  0.3791E+03  0.3787E+03  0.2779E+02  0.2777E+02  0.8813E+00  0.1823E+01  0.1174E-03  0.5891E-03  0.1199E+01  0.1541E+01  0.1834E+02  0.1795E+02  0.1199E+06  0.1192E+06  0.9275E+03  0.7855E+03  0.0000E+00  0.0000E+00  0.0000E+00  0.0000E+00  0.0000E+00  0.0000E+00  0.0000E+00  0.0000E+00  0.0000E+00  0.0000E+00  0.0000E+00  0.0000E+00  0.0000E+00  0.0000E+00  0.0000E+00  0.0000E+00  0.0000E+00  0.1750E+04  0.3803E+03  0.0000E+00  0.0000E+00
REACH   11        0     1  0.3872E+00  0.6521E-01  0.6520E-01  0.4676E-05  0.0000E+00  0.4691E+03  0.2817E+02  0.1371E+03  0.8112E+03  0.8109E+03  0.1783E+03  0.1782E+03  0.1451E+02  0.1451E+02  0.4658E+00  0.6262E+00  0.0000E+00  0.6133E-04  0.9015E+00  0.9596E+00  0.8164E+01  0.8094E+01  0.5687E+05  0.5676E+05  0.5579E+03  0.5118E+03  0.0000E+00  0.0000E+00  0.0000E+00  0.0000E+00  0.0000E+00  0.0000E+00  0.0000E+00  0.0000E+00  0.0000E+00  0.0000E+00  0.0000E+00  0.0000E+00  0.0000E+00  0.0000E+00  0.0000E+00  0.0000E+00  0.0000E+00  0.8260E+03  0.1791E+03  0.0000E+00  0.0000E+00
REACH   12        0     1  0.9590E+00  0.1620E+00  0.1620E+00  0.1295E-04  0.0000E+00  0.1008E+04  0.1325E+03  0.2209E+03  0.2343E+04  0.2342E+04  0.5156E+03  0.5154E+03  0.3737E+02  0.3736E+02  0.1657E+01  0.2239E+01  0.6133E-04  0.2184E-03  0.1922E+01  0.2133E+01  0.2456E+02  0.2432E+02  0.1762E+06  0.1758E+06  0.1237E+04  0.1102E+04  0.0000E+00  0.0000E+00  0.0000E+00  0.0000E+00  0.0000E+00  0.0000E+00  0.0000E+00  0.0000E+00  0.0000E+00  0.0000E+00  0.0000E+00  0.0000E+00  0.0000E+00  0.0000E+00  0.0000E+00  0.0000E+00  0.0000E+00  0.2382E+04  0.5175E+03  0.0000E+00  0.0000E+00
REACH   13        0     1  0.1268E+01  0.2144E+00  0.2144E+00  0.1751E-04  0.0000E+00  0.3922E+03  0.8617E+02  0.1288E+03  0.2881E+04  0.2880E+04  0.6340E+03  0.6335E+03  0.4703E+02  0.4701E+02  0.2392E+01  0.3509E+01  0.2184E-03  0.1316E-02  0.3023E+01  0.3430E+01  0.2983E+02  0.2951E+02  0.2099E+06  0.2091E+06  0.1785E+04  0.1459E+04  0.0000E+00  0.0000E+00  0.0000E+00  0.0000E+00  0.0000E+00  0.0000E+00  0.0000E+00  0.0000E+00  0.0000E+00  0.0000E+00  0.0000E+00  0.0000E+00  0.0000E+00  0.0000E+00  0.0000E+00  0.0000E+00  0.0000E+00  0.2930E+04  0.6369E+03  0.0000E+00  0.0000E+00
REACH   14        0     1  0.1379E+01  0.2336E+00  0.2336E+00  0.7274E-05  0.0000E+00  0.2569E+03  0.1279E+03  0.1676E+03  0.3171E+04  0.3171E+04  0.6977E+03  0.6975E+03  0.5133E+02  0.5132E+02  0.3712E+01  0.4105E+01  0.1316E-02  0.1702E-02  0.3658E+01  0.3801E+01  0.3244E+02  0.3232E+02  0.2302E+06  0.2299E+06  0.1620E+04  0.1595E+04  0.0000E+00  0.0000E+00  0.0000E+00  0.0000E+00  0.0000E+00  0.0000E+00  0.0000E+00  0.0000E+00  0.0000E+00  0.0000E+00  0.0000E+00  0.0000E+00  0.0000E+00  0.0000E+00  0.0000E+00  0.0000E+00  0.0000E+00  0.3226E+04  0.7013E+03  0.0000E+00  0.0000E+00
REACH   15        0     1  0.2071E+01  0.3522E+00  0.3522E+00  0.7566E-05  0.0000E+00  0.1953E+03  0.1953E+03  0.1678E+03  0.4900E+04  0.4899E+04  0.1078E+04  0.1078E+04  0.7972E+02  0.7971E+02  0.5928E+01  0.6346E+01  0.2291E-02  0.2627E-02  0.5392E+01  0.5544E+01  0.5038E+02  0.5026E+02  0.3495E+06  0.3492E+06  0.2415E+04  0.2392E+04  0.0000E+00  0.0000E+00  0.0000E+00  0.0000E+00  0.0000E+00  0.0000E+00  0.0000E+00  0.0000E+00  0.0000E+00  0.0000E+00  0.0000E+00  0.0000E+00  0.0000E+00  0.0000E+00  0.0000E+00  0.0000E+00  0.0000E+00  0.4985E+04  0.1084E+04  0.0000E+00  0.0000E+00
REACH    1        0     2  0.1052E+00  0.5950E-02  0.5946E-02  0.3071E-05  0.0000E+00  0.8611E+02  0.8611E+02  0.6253E+03  0.7219E+02  0.7213E+02  0.1594E+02  0.1592E+02  0.1253E+01  0.1252E+01  0.0000E+00  0.4240E-01  0.0000E+00  0.0000E+00  0.1945E-01  0.3469E-01  0.1009E+01  0.9706E+00  0.1122E+05  0.1115E+05  0.8188E+02  0.4842E+02  0.0000E+00  0.0000E+00  0.0000E+00  0.0000E+00  0.0000E+00  0.0000E+00  0.0000E+00  0.0000E+00  0.0000E+00  0.0000E+00  0.0000E+00  0.0000E+00  0.0000E+00  0.0000E+00  0.0000E+00  0.0000E+00  0.0000E+00  0.7342E+02  0.1595E+02  0.0000E+00  0.0000E+00
REACH    2        0     2  0.1195E+00  0.6725E-02  0.6724E-02  0.7397E-06  0.0000E+00  0.6938E+02  0.6938E+02  0.4506E+03  0.7661E+02  0.7660E+02  0.1689E+02  0.1689E+02  0.2815E+01  0.2815E+01  0.0000E+00  0.9683E-02  0.0000E+00  0.0000E+00  0.3089E-01  0.3435E-01  0.1139E+01  0.1130E+01  0.1005E+05  0.1003E+05  0.9181E+02  0.4097E+02  0.0000E+00  0.0000E+00  0.0000E+00  0.0000E+00  0.0000E+00  0.0000E+00  0.0000E+00  0.0000E+00  0.0000E+00  0.0000E+00  0.0000E+00  0.0000E+00  0.0000E+00  0.0000E+00  0.0000E+00  0.0000E+00  0.0000E+00  0.7942E+02  0.1692E+02  0.0000E+00  0.0000E+00
REACH    3        0     2  0.1497E+00  0.8603E-02  0.8600E-02  0.3319E-05  0.0000E+00  0.6875E+02  0.6875E+02  0.3429E+03  0.6897E+02  0.6893E+02  0.1515E+02  0.1513E+02  0.1315E+01  0.1315E+01  0.0000E+00  0.3211E-01  0.0000E+00  0.0000E+00  0.9575E-01  0.1070E+00  0.8673E+00  0.8446E+00  0.8915E+04  0.8875E+04  0.1362E+03  0.7111E+02  0.0000E+00  0.0000E+00  0.0000E+00  0.0000E+00  0.0000E+00  0.0000E+00  0.0000E+00  0.0000E+00  0.0000E+00  0.0000E+00  0.0000E+00  0.0000E+00  0.0000E+00  0.0000E+00  0.0000E+00  0.0000E+00  0.0000E+00  0.7027E+02  0.1524E+02  0.0000E+00  0.0000E+00
REACH    4        0     2  0.2099E+00  0.1258E-01  0.1258E-01  0.1404E-05  0.0000E+00  0.1025E+03  0.1025E+03  0.3818E+03  0.1082E+03  0.1082E+03  0.2372E+02  0.2371E+02  0.7274E+01  0.7273E+01  0.0000E+00  0.2055E-01  0.0000E+00  0.0000E+00  0.8841E-01  0.9569E-01  0.1527E+01  0.1513E+01  0.1360E+05  0.1357E+05  0.1891E+03  0.1140E+03  0.0000E+00  0.0000E+00  0.0000E+00  0.0000E+00  0.0000E+00  0.0000E+00  0.0000E+00  0.0000E+00  0.0000E+00  0.0000E+00  0.0000E+00  0.0000E+00  0.0000E+00  0.0000E+00  0.0000E+00  0.0000E+00  0.0000E+00  0.1155E+03  0.2381E+02  0.0000E+00  0.0000E+00
REACH    5        0     2  0.1275E+00  0.7186E-02  0.7184E-02  0.2518E-05  0.0000E+00  0.7337E+02  0.7337E+02  0.4452E+03  0.8675E+02  0.8670E+02  0.1911E+02  0.1909E+02  0.1548E+01  0.1547E+01  0.0000E+00  0.3545E-01  0.0000E+00  0.0000E+00  0.1955E-01  0.3226E-01  0.1226E+01  0.1195E+01  0.1056E+05  0.1051E+05  0.9753E+02  0.6027E+02  0.0000E+00  0.0000E+00  0.0000E+00  0.0000E+00  0.0000E+00  0.0000E+00  0.0000E+00  0.0000E+00  0.0000E+00  0.0000E+00  0.0000E+00  0.0000E+00  0.0000E+00  0.0000E+00  0.0000E+00  0.0000E+00  0.0000E+00  0.8828E+02  0.1913E+02  0.0000E+00  0.0000E+00
REACH    6        0     2  0.2672E+00  0.1518E-01  0.1517E-01  0.5406E-05  0.0000E+00  0.2547E+03  0.2547E+03  0.7326E+03  0.1885E+03  0.1884E+03  0.4164E+02  0.4160E+02  0.3296E+01  0.3295E+01  0.0000E+00  0.8362E-01  0.0000E+00  0.0000E+00  0.3379E-01  0.6383E-01  0.2632E+01  0.2573E+01  0.3217E+05  0.3202E+05  0.2067E+03  0.1275E+03  0.0000E+00  0.0000E+00  0.0000E+00  0.0000E+00  0.0000E+00  0.0000E+00  0.0000E+00  0.0000E+00  0.0000E+00  0.0000E+00  0.0000E+00  0.0000E+00  0.0000E+00  0.0000E+00  0.0000E+00  0.0000E+00  0.0000E+00  0.1917E+03  0.4167E+02  0.0000E+00  0.0000E+00
REACH    7        0     2  0.1536E+00  0.8933E-02  0.8924E-02  0.8221E-05  0.0000E+00  0.1326E+03  0.1326E+03  0.6649E+03  0.9292E+02  0.9278E+02  0.2051E+02  0.2047E+02  0.1820E+01  0.1818E+01  0.0000E+00  0.1035E+00  0.0000E+00  0.0000E+00  0.4752E-01  0.8446E-01  0.1295E+01  0.1210E+01  0.1645E+05  0.1627E+05  0.1265E+03  0.7723E+02  0.0000E+00  0.0000E+00  0.0000E+00  0.0000E+00  0.0000E+00  0.0000E+00  0.0000E+00  0.0000E+00  0.0000E+00  0.0000E+00  0.0000E+00  0.0000E+00  0.0000E+00  0.0000E+00  0.0000E+00  0.0000E+00  0.0000E+00  0.9470E+02  0.2055E+02  0.0000E+00  0.0000E+00
REACH    8        0     2  0.5338E+00  0.3167E-01  0.3165E-01  0.2682E-04  0.0000E+00  0.4835E+03  0.4835E+03  0.7234E+03  0.3549E+03  0.3547E+03  0.7830E+02  0.7820E+02  0.6611E+01  0.6606E+01  0.0000E+00  0.2398E+00  0.0000E+00  0.0000E+00  0.7468E-01  0.1589E+00  0.5012E+01  0.4857E+01  0.6137E+05  0.6099E+05  0.4414E+03  0.2302E+03  0.0000E+00  0.0000E+00  0.0000E+00  0.0000E+00  0.0000E+00  0.0000E+00  0.0000E+00  0.0000E+00  0.0000E+00  0.0000E+00  0.0000E+00  0.0000E+00  0.0000E+00  0.0000E+00  0.0000E+00  0.0000E+00  0.0000E+00  0.3615E+03  0.7836E+02  0.0000E+00  0.0000E+00
REACH    9        0     2  0.4934E+00  0.2795E-01  0.2794E-01  0.6576E-05  0.0000E+00  0.3799E+03  0.1418E+02  0.7941E+02  0.3356E+03  0.3354E+03  0.7402E+02  0.7398E+02  0.8458E+01  0.8455E+01  0.1191E+00  0.2235E+00  0.0000E+00  0.9261E-04  0.1223E+00  0.1598E+00  0.4728E+01  0.4667E+01  0.5041E+05  0.5026E+05  0.2624E+03  0.2034E+03  0.0000E+00  0.0000E+00  0.0000E+00  0.0000E+00  0.0000E+00  0.0000E+00  0.0000E+00  0.0000E+00  0.0000E+00  0.0000E+00  0.0000E+00  0.0000E+00  0.0000E+00  0.0000E+00  0.0000E+00  0.0000E+00  0.0000E+00  0.3441E+03  0.7414E+02  0.0000E+00  0.0000E+00
REACH   10        0     2  0.6810E+00  0.3854E-01  0.3852E-01  0.1214E-04  0.0000E+00  0.9769E+02  0.1644E+02  0.7102E+02  0.4368E+03  0.4365E+03  0.9631E+02  0.9620E+02  0.1176E+02  0.1176E+02  0.2332E+00  0.4700E+00  0.9261E-04  0.2631E-03  0.2542E+00  0.3394E+00  0.6158E+01  0.6039E+01  0.6261E+05  0.6227E+05  0.3063E+03  0.2678E+03  0.0000E+00  0.0000E+00  0.0000E+00  0.0000E+00  0.0000E+00  0.0000E+00  0.0000E+00  0.0000E+00  0.0000E+00  0.0000E+00  0.0000E+00  0.0000E+00  0.0000E+00  0.0000E+00  0.0000E+00  0.0000E+00  0.0000E+00  0.4487E+03  0.9654E+02  0.0000E+00  0.0000E+00
REACH   11        0     2  0.3872E+00  0.2300E-01  0.2300E-01  0.2580E-05  0.0000E+00  0.2369E+03  0.8534E+01  0.9455E+02  0.2059E+03  0.2059E+03  0.4524E+02  0.4522E+02  0.9203E+01  0.9202E+01  0.1240E+00  0.1647E+00  0.0000E+00  0.2297E-05  0.2080E+00  0.2224E+00  0.2793E+01  0.2770E+01  0.3013E+05  0.3007E+05  0.2176E+03  0.2052E+03  0.0000E+00  0.0000E+00  0.0000E+00  0.0000E+00  0.0000E+00  0.0000E+00  0.0000E+00  0.0000E+00  0.0000E+00  0.0000E+00  0.0000E+00  0.0000E+00  0.0000E+00  0.0000E+00  0.0000E+00  0.0000E+00  0.0000E+00  0.2152E+03  0.4544E+02  0.0000E+00  0.0000E+00
REACH   12        0     2  0.9590E+00  0.5688E-01  0.5686E-01  0.1177E-04  0.0000E+00  0.4981E+03  0.3029E+02  0.1215E+03  0.5737E+03  0.5734E+03  0.1263E+03  0.1262E+03  0.1606E+02  0.1606E+02  0.4045E+00  0.5902E+00  0.2297E-05  0.9448E-04  0.4142E+00  0.4805E+00  0.7819E+01  0.7733E+01  0.9213E+05  0.9183E+05  0.4714E+03  0.4361E+03  0.0000E+00  0.0000E+00  0.0000E+00  0.0000E+00  0.0000E+00  0.0000E+00  0.0000E+00  0.0000E+00  0.0000E+00  0.0000E+00  0.0000E+00  0.0000E+00  0.0000E+00  0.0000E+00  0.0000E+00  0.0000E+00  0.0000E+00  0.5901E+03  0.1267E+03  0.0000E+00  0.0000E+00
REACH   13        0     2  0.1268E+01  0.7427E-01  0.7426E-01  0.1048E-04  0.0000E+00  0.1611E+03  0.2579E+02  0.7336E+02  0.7175E+03  0.7172E+03  0.1579E+03  0.1578E+03  0.1878E+02  0.1877E+02  0.6223E+00  0.8832E+00  0.9448E-04  0.3109E-03  0.6936E+00  0.7874E+00  0.9650E+01  0.9555E+01  0.1098E+06  0.1094E+06  0.6395E+03  0.5610E+03  0.0000E+00  0.0000E+00  0.0000E+00  0.0000E+00  0.0000E+00  0.0000E+00  0.0000E+00  0.0000E+00  0.0000E+00  0.0000E+00  0.0000E+00  0.0000E+00  0.0000E+00  0.0000E+00  0.0000E+00  0.0000E+00  0.0000E+00  0.7368E+03  0.1586E+03  0.0000E+00  0.0000E+00
REACH   14        0     2  0.1379E+01  0.8054E-01  0.8053E-01  0.4458E-05  0.0000E+00  0.1119E+03  0.3355E+02  0.9909E+02  0.7893E+03  0.7892E+03  0.1737E+03  0.1737E+03  0.2002E+02  0.2002E+02  0.9256E+00  0.1026E+01  0.3109E-03  0.3573E-03  0.8344E+00  0.8705E+00  0.1053E+02  0.1049E+02  0.1206E+06  0.1204E+06  0.6160E+03  0.6096E+03  0.0000E+00  0.0000E+00  0.0000E+00  0.0000E+00  0.0000E+00  0.0000E+00  0.0000E+00  0.0000E+00  0.0000E+00  0.0000E+00  0.0000E+00  0.0000E+00  0.0000E+00  0.0000E+00  0.0000E+00  0.0000E+00  0.0000E+00  0.8102E+03  0.1745E+03  0.0000E+00  0.0000E+00
REACH   15        0     2  0.2071E+01  0.1198E+00  0.1198E+00  0.7026E-05  0.0000E+00  0.5108E+02  0.5106E+02  0.9368E+02  0.1228E+04  0.1228E+04  0.2705E+03  0.2704E+03  0.3193E+02  0.3193E+02  0.1496E+01  0.1645E+01  0.6204E-03  0.6951E-03  0.1221E+01  0.1275E+01  0.1657E+02  0.1652E+02  0.1829E+06  0.1827E+06  0.8891E+03  0.8839E+03  0.0000E+00  0.0000E+00  0.0000E+00  0.0000E+00  0.0000E+00  0.0000E+00  0.0000E+00  0.0000E+00  0.0000E+00  0.0000E+00  0.0000E+00  0.0000E+00  0.0000E+00  0.0000E+00  0.0000E+00  0.0000E+00  0.0000E+00  0.1262E+04  0.2717E+03  0.0000E+00  0.0000E+00
REACH    1        0     3  0.1052E+00  0.1585E-02  0.1582E-02  0.2371E-05  0.0000E+00  0.2024E-01  0.2024E-01  0.1293E+01  0.1327E-01  0.1326E-01  0.2990E-02  0.2984E-02  0.1939E-01  0.1932E-01  0.0000E+00  0.9463E-03  0.0000E+00  0.0000E+00  0.1964E-02  0.2006E-02  0.3868E-03  0.3400E-03  0.4959E+01  0.4919E+01  0.3500E+02  0.2714E+02  0.0000E+00  0.0000E+00  0.0000E+00  0.0000E+00  0.0000E+00  0.0000E+00  0.0000E+00  0.0000E+00  0.0000E+00  0.0000E+00  0.0000E+00  0.0000E+00  0.0000E+00  0.0000E+00  0.0000E+00  0.0000E+00  0.0000E+00  0.3352E-01  0.4989E-02  0.0000E+00  0.0000E+00
REACH    2        0     3  0.1195E+00  0.1794E-02  0.1793E-02  0.5724E-06  0.0000E+00  0.8776E+00  0.8776E+00  0.4995E+02  0.4237E+00  0.4236E+00  0.9546E-01  0.9542E-01  0.6962E+00  0.6960E+00  0.0000E+00  0.3222E-03  0.0000E+00  0.0000E+00  0.3109E-02  0.3148E-02  0.2324E-01  0.2267E-01  0.1982E+03  0.1979E+03  0.3867E+02  0.1218E+02  0.0000E+00  0.0000E+00  0.0000E+00  0.0000E+00  0.0000E+00  0.0000E+00  0.0000E+00  0.0000E+00  0.0000E+00  0.0000E+00  0.0000E+00  0.0000E+00  0.0000E+00  0.0000E+00  0.0000E+00  0.0000E+00  0.0000E+00  0.1120E+01  0.9857E-01  0.0000E+00  0.0000E+00
REACH    3        0     3  0.1497E+00  0.2255E-02  0.2252E-02  0.2573E-05  0.0000E+00  0.2170E-06  0.2170E-06  0.1344E-03  0.4641E-06  0.1447E-07  0.1392E-05  0.6193E-06  0.1480E-01  0.1475E-01  0.0000E+00  0.1151E-02  0.0000E+00  0.0000E+00  0.1950E-01  0.1953E-01  0.3345E-05  0.2957E-05  0.0000E+00  0.0000E+00  0.4983E+02  0.4846E+02  0.0000E+00  0.0000E+00  0.0000E+00  0.0000E+00  0.0000E+00  0.0000E+00  0.0000E+00  0.0000E+00  0.0000E+00  0.0000E+00  0.0000E+00  0.0000E+00  0.0000E+00  0.0000E+00  0.0000E+00  0.0000E+00  0.0000E+00  0.1590E-01  0.1953E-01  0.0000E+00  0.0000E+00
REACH    4        0     3  0.2099E+00  0.3673E-02  0.3672E-02  0.1077E-05  0.0000E+00  0.2371E-01  0.2371E-01  0.6379E+00  0.3086E-01  0.3085E-01  0.6517E-02  0.6513E-02  0.1288E+01  0.1288E+01  0.0000E+00  0.4992E-03  0.0000E+00  0.0000E+00  0.1339E-01  0.1340E-01  0.3163E-02  0.3079E-02  0.1552E+01  0.1549E+01  0.8018E+02  0.7646E+02  0.0000E+00  0.0000E+00  0.0000E+00  0.0000E+00  0.0000E+00  0.0000E+00  0.0000E+00  0.0000E+00  0.0000E+00  0.0000E+00  0.0000E+00  0.0000E+00  0.0000E+00  0.0000E+00  0.0000E+00  0.0000E+00  0.0000E+00  0.1319E+01  0.1992E-01  0.0000E+00  0.0000E+00
REACH    5        0     3  0.1275E+00  0.1893E-02  0.1891E-02  0.1914E-05  0.0000E+00  0.1053E-06  0.1053E-06  0.4048E-03  0.4749E-06  0.2025E-06  0.1201E-05  0.5083E-06  0.4302E-01  0.4293E-01  0.0000E+00  0.8431E-03  0.0000E+00  0.0000E+00  0.7860E-06  0.4746E-06  0.2975E-13  0.0000E+00  0.0000E+00  0.0000E+00  0.4185E+02  0.4069E+02  0.0000E+00  0.0000E+00  0.0000E+00  0.0000E+00  0.0000E+00  0.0000E+00  0.0000E+00  0.0000E+00  0.0000E+00  0.0000E+00  0.0000E+00  0.0000E+00  0.0000E+00  0.0000E+00  0.0000E+00  0.0000E+00  0.0000E+00  0.4377E-01  0.9829E-06  0.0000E+00  0.0000E+00
REACH    6        0     3  0.2672E+00  0.4060E-02  0.4056E-02  0.4261E-05  0.0000E+00  0.9300E-07  0.9300E-07  0.2277E-03  0.8282E-06  0.2613E-06  0.2485E-05  0.9959E-06  0.1667E+00  0.1663E+00  0.0000E+00  0.1966E-02  0.0000E+00  0.0000E+00  0.8291E-06  0.8284E-06  0.1420E-14  0.0000E+00  0.0000E+00  0.0000E+00  0.8975E+02  0.8727E+02  0.0000E+00  0.0000E+00  0.0000E+00  0.0000E+00  0.0000E+00  0.0000E+00  0.0000E+00  0.0000E+00  0.0000E+00  0.0000E+00  0.0000E+00  0.0000E+00  0.0000E+00  0.0000E+00  0.0000E+00  0.0000E+00  0.0000E+00  0.1683E+00  0.1824E-05  0.0000E+00  0.0000E+00
REACH    7        0     3  0.1536E+00  0.2490E-02  0.2484E-02  0.6316E-05  0.0000E+00  0.3843E-06  0.3843E-06  0.2091E-03  0.5128E-06  0.0000E+00  0.1435E-05  0.5853E-06  0.8961E+00  0.8926E+00  0.0000E+00  0.2857E-02  0.0000E+00  0.0000E+00  0.4220E-02  0.4306E-02  0.1381E-05  0.1017E-05  0.0000E+00  0.0000E+00  0.5503E+02  0.5343E+02  0.0000E+00  0.0000E+00  0.0000E+00  0.0000E+00  0.0000E+00  0.0000E+00  0.0000E+00  0.0000E+00  0.0000E+00  0.0000E+00  0.0000E+00  0.0000E+00  0.0000E+00  0.0000E+00  0.0000E+00  0.0000E+00  0.0000E+00  0.8955E+00  0.4306E-02  0.0000E+00  0.0000E+00
REACH    8        0     3  0.5338E+00  0.9318E-02  0.9293E-02  0.2473E-04  0.0000E+00  0.3905E+01  0.3905E+01  0.4817E+02  0.1841E+01  0.1836E+01  0.4115E+00  0.4100E+00  0.4140E+00  0.4122E+00  0.0000E+00  0.1510E-01  0.0000E+00  0.0000E+00  0.1906E-02  0.3364E-02  0.5380E-01  0.4077E-01  0.7930E+03  0.7800E+03  0.2014E+03  0.8441E+02  0.0000E+00  0.0000E+00  0.0000E+00  0.0000E+00  0.0000E+00  0.0000E+00  0.0000E+00  0.0000E+00  0.0000E+00  0.0000E+00  0.0000E+00  0.0000E+00  0.0000E+00  0.0000E+00  0.0000E+00  0.0000E+00  0.0000E+00  0.2264E+01  0.4133E+00  0.0000E+00  0.0000E+00
REACH    9        0     3  0.4934E+00  0.7465E-02  0.7460E-02  0.5192E-05  0.0000E+00  0.1049E+01  0.2775E+01  0.6442E+02  0.6995E+00  0.6990E+00  0.1570E+00  0.1569E+00  0.8033E+00  0.8022E+00  0.2809E-02  0.5557E-02  0.0000E+00  0.5054E-04  0.1927E-02  0.2128E-02  0.2336E-01  0.2205E-01  0.2690E+03  0.2678E+03  0.1599E+03  0.6386E+02  0.0000E+00  0.0000E+00  0.0000E+00  0.0000E+00  0.0000E+00  0.0000E+00  0.0000E+00  0.0000E+00  0.0000E+00  0.0000E+00  0.0000E+00  0.0000E+00  0.0000E+00  0.0000E+00  0.0000E+00  0.0000E+00  0.0000E+00  0.1507E+01  0.1590E+00  0.0000E+00  0.0000E+00
REACH   10        0     3  0.6810E+00  0.1021E-01  0.1020E-01  0.9689E-05  0.0000E+00  0.3653E+01  0.3160E+01  0.5605E+02  0.1123E+01  0.1122E+01  0.2523E+00  0.2519E+00  0.2290E+01  0.2287E+01  0.5879E-02  0.1133E-01  0.5054E-04  0.1345E-03  0.1737E-01  0.1789E-01  0.6898E-01  0.6364E-01  0.4657E+03  0.4621E+03  0.9712E+02  0.8090E+02  0.0000E+00  0.0000E+00  0.0000E+00  0.0000E+00  0.0000E+00  0.0000E+00  0.0000E+00  0.0000E+00  0.0000E+00  0.0000E+00  0.0000E+00  0.0000E+00  0.0000E+00  0.0000E+00  0.0000E+00  0.0000E+00  0.0000E+00  0.3420E+01  0.2698E+00  0.0000E+00  0.0000E+00
REACH   11        0     3  0.3872E+00  0.6620E-02  0.6618E-02  0.2041E-05  0.0000E+00  0.2371E-01  0.1931E+01  0.6939E+02  0.3085E-01  0.3084E-01  0.6514E-02  0.6511E-02  0.2194E+01  0.2193E+01  0.3356E-02  0.4328E-02  0.0000E+00  0.3362E-05  0.2349E-01  0.2352E-01  0.3081E-02  0.2998E-02  0.1549E+01  0.1546E+01  0.1401E+03  0.1398E+03  0.0000E+00  0.0000E+00  0.0000E+00  0.0000E+00  0.0000E+00  0.0000E+00  0.0000E+00  0.0000E+00  0.0000E+00  0.0000E+00  0.0000E+00  0.0000E+00  0.0000E+00  0.0000E+00  0.0000E+00  0.0000E+00  0.0000E+00  0.2228E+01  0.3003E-01  0.0000E+00  0.0000E+00
REACH   12        0     3  0.9590E+00  0.1650E-01  0.1649E-01  0.9493E-05  0.0000E+00  0.5836E+01  0.6373E+01  0.8875E+02  0.1867E+01  0.1866E+01  0.4165E+00  0.4161E+00  0.2612E+01  0.2610E+01  0.1943E-01  0.2489E-01  0.3362E-05  0.4211E-04  0.3343E-01  0.3394E-01  0.4376E-01  0.4154E-01  0.7816E+03  0.7782E+03  0.2371E+03  0.1563E+03  0.0000E+00  0.0000E+00  0.0000E+00  0.0000E+00  0.0000E+00  0.0000E+00  0.0000E+00  0.0000E+00  0.0000E+00  0.0000E+00  0.0000E+00  0.0000E+00  0.0000E+00  0.0000E+00  0.0000E+00  0.0000E+00  0.0000E+00  0.4501E+01  0.4500E+00  0.0000E+00  0.0000E+00
REACH   13        0     3  0.1268E+01  0.2101E-01  0.2100E-01  0.8408E-05  0.0000E+00  0.6680E+01  0.5346E+01  0.5670E+02  0.2029E+01  0.2028E+01  0.4529E+00  0.4524E+00  0.2644E+01  0.2643E+01  0.2604E-01  0.3105E-01  0.4211E-04  0.1153E-03  0.7783E-01  0.7841E-01  0.4629E-01  0.4466E-01  0.8500E+03  0.8459E+03  0.2546E+03  0.1912E+03  0.0000E+00  0.0000E+00  0.0000E+00  0.0000E+00  0.0000E+00  0.0000E+00  0.0000E+00  0.0000E+00  0.0000E+00  0.0000E+00  0.0000E+00  0.0000E+00  0.0000E+00  0.0000E+00  0.0000E+00  0.0000E+00  0.0000E+00  0.4702E+01  0.5308E+00  0.0000E+00  0.0000E+00
REACH   14        0     3  0.1379E+01  0.2265E-01  0.2265E-01  0.3612E-05  0.0000E+00  0.5367E+01  0.7228E+01  0.7216E+02  0.2041E+01  0.2041E+01  0.4554E+00  0.4552E+00  0.2662E+01  0.2661E+01  0.3200E-01  0.3409E-01  0.1153E-03  0.1406E-03  0.8340E-01  0.8363E-01  0.4500E-01  0.4438E-01  0.8508E+03  0.8495E+03  0.2198E+03  0.2059E+03  0.0000E+00  0.0000E+00  0.0000E+00  0.0000E+00  0.0000E+00  0.0000E+00  0.0000E+00  0.0000E+00  0.0000E+00  0.0000E+00  0.0000E+00  0.0000E+00  0.0000E+00  0.0000E+00  0.0000E+00  0.0000E+00  0.0000E+00  0.4736E+01  0.5388E+00  0.0000E+00  0.0000E+00
REACH   15        0     3  0.2071E+01  0.3306E-01  0.3306E-01  0.5743E-05  0.0000E+00  0.1039E+02  0.1041E+02  0.6885E+02  0.3162E+01  0.3162E+01  0.7071E+00  0.7069E+00  0.5959E+01  0.5957E+01  0.4542E-01  0.4878E-01  0.2750E-03  0.3242E-03  0.1023E+00  0.1027E+00  0.1368E+00  0.1345E+00  0.1312E+04  0.1309E+04  0.2916E+03  0.2896E+03  0.0000E+00  0.0000E+00  0.0000E+00  0.0000E+00  0.0000E+00  0.0000E+00  0.0000E+00  0.0000E+00  0.0000E+00  0.0000E+00  0.0000E+00  0.0000E+00  0.0000E+00  0.0000E+00  0.0000E+00  0.0000E+00  0.0000E+00  0.9168E+01  0.8096E+00  0.0000E+00  0.0000E+00
REACH    1        0     4  0.1052E+00  0.5679E-02  0.5676E-02  0.3673E-05  0.0000E+00  0.3195E+00  0.3195E+00  0.2737E+01  0.3226E+00  0.3222E+00  0.7043E-01  0.7031E-01  0.2809E+00  0.2808E+00  0.0000E+00  0.1402E-02  0.0000E+00  0.0000E+00  0.1255E-01  0.1270E-01  0.3125E-02  0.2965E-02  0.5499E+02  0.5458E+02  0.1093E+03  0.6327E+02  0.0000E+00  0.0000E+00  0.0000E+00  0.0000E+00  0.0000E+00  0.0000E+00  0.0000E+00  0.0000E+00  0.0000E+00  0.0000E+00  0.0000E+00  0.0000E+00  0.0000E+00  0.0000E+00  0.0000E+00  0.0000E+00  0.0000E+00  0.6044E+00  0.8301E-01  0.0000E+00  0.0000E+00
REACH    2        0     4  0.1195E+00  0.6439E-02  0.6438E-02  0.8840E-06  0.0000E+00  0.4640E+01  0.4640E+01  0.4780E+02  0.2126E+01  0.2126E+01  0.4751E+00  0.4750E+00  0.3382E+00  0.3381E+00  0.0000E+00  0.6203E-03  0.0000E+00  0.0000E+00  0.2063E-01  0.2077E-01  0.6570E-01  0.6501E-01  0.1199E+04  0.1197E+04  0.1220E+03  0.2683E+02  0.0000E+00  0.0000E+00  0.0000E+00  0.0000E+00  0.0000E+00  0.0000E+00  0.0000E+00  0.0000E+00  0.0000E+00  0.0000E+00  0.0000E+00  0.0000E+00  0.0000E+00  0.0000E+00  0.0000E+00  0.0000E+00  0.0000E+00  0.2464E+01  0.4957E+00  0.0000E+00  0.0000E+00
REACH    3        0     4  0.1497E+00  0.7344E-02  0.7340E-02  0.3874E-05  0.0000E+00  0.1746E+00  0.1746E+00  0.8509E+00  0.2477E+00  0.2474E+00  0.5354E-01  0.5347E-01  0.2913E+00  0.2912E+00  0.0000E+00  0.1447E-02  0.0000E+00  0.0000E+00  0.8442E-01  0.8450E-01  0.9805E-03  0.9453E-03  0.2044E+02  0.2032E+02  0.1479E+03  0.1256E+03  0.0000E+00  0.0000E+00  0.0000E+00  0.0000E+00  0.0000E+00  0.0000E+00  0.0000E+00  0.0000E+00  0.0000E+00  0.0000E+00  0.0000E+00  0.0000E+00  0.0000E+00  0.0000E+00  0.0000E+00  0.0000E+00  0.0000E+00  0.5401E+00  0.1380E+00  0.0000E+00  0.0000E+00
REACH    4        0     4  0.2099E+00  0.1047E-01  0.1047E-01  0.1614E-05  0.0000E+00  0.8270E+00  0.8270E+00  0.3175E+01  0.1127E+01  0.1127E+01  0.2366E+00  0.2365E+00  0.4818E+00  0.4818E+00  0.0000E+00  0.7582E-03  0.0000E+00  0.0000E+00  0.7837E-01  0.7846E-01  0.1531E-01  0.1516E-01  0.1510E+03  0.1507E+03  0.2042E+03  0.9637E+02  0.0000E+00  0.0000E+00  0.0000E+00  0.0000E+00  0.0000E+00  0.0000E+00  0.0000E+00  0.0000E+00  0.0000E+00  0.0000E+00  0.0000E+00  0.0000E+00  0.0000E+00  0.0000E+00  0.0000E+00  0.0000E+00  0.0000E+00  0.1609E+01  0.3150E+00  0.0000E+00  0.0000E+00
REACH    5        0     4  0.1275E+00  0.6793E-02  0.6790E-02  0.2922E-05  0.0000E+00  0.2012E+00  0.2012E+00  0.1173E+01  0.3301E+00  0.3299E+00  0.7148E-01  0.7141E-01  0.3643E+00  0.3642E+00  0.0000E+00  0.1070E-02  0.0000E+00  0.0000E+00  0.9464E-02  0.9543E-02  0.1512E-02  0.1475E-02  0.2520E+02  0.2510E+02  0.1323E+03  0.1108E+03  0.0000E+00  0.0000E+00  0.0000E+00  0.0000E+00  0.0000E+00  0.0000E+00  0.0000E+00  0.0000E+00  0.0000E+00  0.0000E+00  0.0000E+00  0.0000E+00  0.0000E+00  0.0000E+00  0.0000E+00  0.0000E+00  0.0000E+00  0.6951E+00  0.8095E-01  0.0000E+00  0.0000E+00
REACH    6        0     4  0.2672E+00  0.1443E-01  0.1442E-01  0.5391E-05  0.0000E+00  0.6462E+00  0.6462E+00  0.1801E+01  0.7197E+00  0.7194E+00  0.1558E+00  0.1557E+00  0.7384E+00  0.7382E+00  0.0000E+00  0.2286E-02  0.0000E+00  0.0000E+00  0.1283E-01  0.1294E-01  0.3154E-02  0.3105E-02  0.7708E+02  0.7686E+02  0.2747E+03  0.2161E+03  0.0000E+00  0.0000E+00  0.0000E+00  0.0000E+00  0.0000E+00  0.0000E+00  0.0000E+00  0.0000E+00  0.0000E+00  0.0000E+00  0.0000E+00  0.0000E+00  0.0000E+00  0.0000E+00  0.0000E+00  0.0000E+00  0.0000E+00  0.1460E+01  0.1686E+00  0.0000E+00  0.0000E+00
REACH    7        0     4  0.1536E+00  0.8101E-02  0.8091E-02  0.9510E-05  0.0000E+00  0.3523E+00  0.3523E+00  0.1707E+01  0.4718E+00  0.4709E+00  0.1014E+00  0.1011E+00  0.4056E+00  0.4052E+00  0.0000E+00  0.3645E-02  0.0000E+00  0.0000E+00  0.3401E-01  0.3429E-01  0.2485E-02  0.2317E-02  0.4271E+02  0.4225E+02  0.1548E+03  0.1208E+03  0.0000E+00  0.0000E+00  0.0000E+00  0.0000E+00  0.0000E+00  0.0000E+00  0.0000E+00  0.0000E+00  0.0000E+00  0.0000E+00  0.0000E+00  0.0000E+00  0.0000E+00  0.0000E+00  0.0000E+00  0.0000E+00  0.0000E+00  0.8797E+00  0.1354E+00  0.0000E+00  0.0000E+00
REACH    8        0     4  0.5338E+00  0.2826E-01  0.2824E-01  0.2570E-04  0.0000E+00  0.2274E+02  0.2274E+02  0.5258E+02  0.9456E+01  0.9447E+01  0.2106E+01  0.2103E+01  0.1416E+01  0.1416E+01  0.0000E+00  0.1851E-01  0.0000E+00  0.0000E+00  0.4344E-01  0.4626E-01  0.3114E+00  0.2954E+00  0.5131E+04  0.5095E+04  0.5188E+03  0.1297E+03  0.0000E+00  0.0000E+00  0.0000E+00  0.0000E+00  0.0000E+00  0.0000E+00  0.0000E+00  0.0000E+00  0.0000E+00  0.0000E+00  0.0000E+00  0.0000E+00  0.0000E+00  0.0000E+00  0.0000E+00  0.0000E+00  0.0000E+00  0.1088E+02  0.2149E+01  0.0000E+00  0.0000E+00
REACH    9        0     4  0.4934E+00  0.2657E-01  0.2656E-01  0.7594E-05  0.0000E+00  0.7027E+01  0.1230E+02  0.7155E+02  0.4794E+01  0.4791E+01  0.1061E+01  0.1060E+01  0.1367E+01  0.1367E+01  0.3356E-02  0.7322E-02  0.0000E+00  0.6361E-04  0.4016E-01  0.4098E-01  0.1343E+00  0.1318E+00  0.1866E+04  0.1859E+04  0.4240E+03  0.1222E+03  0.0000E+00  0.0000E+00  0.0000E+00  0.0000E+00  0.0000E+00  0.0000E+00  0.0000E+00  0.0000E+00  0.0000E+00  0.0000E+00  0.0000E+00  0.0000E+00  0.0000E+00  0.0000E+00  0.0000E+00  0.0000E+00  0.0000E+00  0.6165E+01  0.1101E+01  0.0000E+00  0.0000E+00
REACH   10        0     4  0.6810E+00  0.3620E-01  0.3619E-01  0.1391E-04  0.0000E+00  0.1699E+02  0.1541E+02  0.6488E+02  0.7050E+01  0.7045E+01  0.1563E+01  0.1561E+01  0.1856E+01  0.1856E+01  0.7942E-02  0.1699E-01  0.6361E-04  0.1821E-03  0.1139E+00  0.1157E+00  0.1989E+00  0.1937E+00  0.3065E+04  0.3047E+04  0.2136E+03  0.1586E+03  0.0000E+00  0.0000E+00  0.0000E+00  0.0000E+00  0.0000E+00  0.0000E+00  0.0000E+00  0.0000E+00  0.0000E+00  0.0000E+00  0.0000E+00  0.0000E+00  0.0000E+00  0.0000E+00  0.0000E+00  0.0000E+00  0.0000E+00  0.8918E+01  0.1677E+01  0.0000E+00  0.0000E+00
REACH   11        0     4  0.3872E+00  0.1956E-01  0.1956E-01  0.2968E-05  0.0000E+00  0.1186E+01  0.7641E+01  0.6068E+02  0.1623E+01  0.1622E+01  0.3430E+00  0.3429E+00  0.9068E+00  0.9067E+00  0.4404E-02  0.5758E-02  0.0000E+00  0.1026E-04  0.1397E+00  0.1399E+00  0.1785E-01  0.1769E-01  0.1941E+03  0.1937E+03  0.2381E+03  0.2191E+03  0.0000E+00  0.0000E+00  0.0000E+00  0.0000E+00  0.0000E+00  0.0000E+00  0.0000E+00  0.0000E+00  0.0000E+00  0.0000E+00  0.0000E+00  0.0000E+00  0.0000E+00  0.0000E+00  0.0000E+00  0.0000E+00  0.0000E+00  0.2535E+01  0.4828E+00  0.0000E+00  0.0000E+00
REACH   12        0     4  0.9590E+00  0.4955E-01  0.4954E-01  0.9846E-05  0.0000E+00  0.3041E+02  0.4183E+02  0.9458E+02  0.1114E+02  0.1113E+02  0.2460E+01  0.2459E+01  0.2388E+01  0.2388E+01  0.2427E-01  0.3123E-01  0.1026E-04  0.4816E-04  0.2160E+00  0.2171E+00  0.3136E+00  0.3103E+00  0.5293E+04  0.5281E+04  0.3844E+03  0.2221E+03  0.0000E+00  0.0000E+00  0.0000E+00  0.0000E+00  0.0000E+00  0.0000E+00  0.0000E+00  0.0000E+00  0.0000E+00  0.0000E+00  0.0000E+00  0.0000E+00  0.0000E+00  0.0000E+00  0.0000E+00  0.0000E+00  0.0000E+00  0.1355E+02  0.2676E+01  0.0000E+00  0.0000E+00
REACH   13        0     4  0.1268E+01  0.6521E-01  0.6520E-01  0.1167E-04  0.0000E+00  0.4371E+02  0.2253E+02  0.5745E+02  0.1235E+02  0.1234E+02  0.2729E+01  0.2727E+01  0.3007E+01  0.3006E+01  0.3268E-01  0.4193E-01  0.4816E-04  0.1318E-03  0.4056E+00  0.4077E+00  0.3373E+00  0.3330E+00  0.5738E+04  0.5715E+04  0.5130E+03  0.2817E+03  0.0000E+00  0.0000E+00  0.0000E+00  0.0000E+00  0.0000E+00  0.0000E+00  0.0000E+00  0.0000E+00  0.0000E+00  0.0000E+00  0.0000E+00  0.0000E+00  0.0000E+00  0.0000E+00  0.0000E+00  0.0000E+00  0.0000E+00  0.1539E+02  0.3135E+01  0.0000E+00  0.0000E+00
REACH   14        0     4  0.1379E+01  0.7114E-01  0.7114E-01  0.5064E-05  0.0000E+00  0.2285E+02  0.3021E+02  0.6732E+02  0.1267E+02  0.1266E+02  0.2797E+01  0.2796E+01  0.3287E+01  0.3287E+01  0.4333E-01  0.4691E-01  0.1318E-03  0.1959E-03  0.4317E+00  0.4325E+00  0.3360E+00  0.3344E+00  0.5769E+04  0.5761E+04  0.3508E+03  0.3091E+03  0.0000E+00  0.0000E+00  0.0000E+00  0.0000E+00  0.0000E+00  0.0000E+00  0.0000E+00  0.0000E+00  0.0000E+00  0.0000E+00  0.0000E+00  0.0000E+00  0.0000E+00  0.0000E+00  0.0000E+00  0.0000E+00  0.0000E+00  0.1600E+02  0.3229E+01  0.0000E+00  0.0000E+00
REACH   15        0     4  0.2071E+01  0.1078E+00  0.1078E+00  0.5922E-05  0.0000E+00  0.4563E+02  0.4563E+02  0.6648E+02  0.1975E+02  0.1975E+02  0.4367E+01  0.4366E+01  0.5208E+01  0.5207E+01  0.6390E-01  0.6818E-01  0.3779E-03  0.4855E-03  0.5536E+00  0.5544E+00  0.5303E+00  0.5288E+00  0.8810E+04  0.8802E+04  0.4778E+03  0.4700E+03  0.0000E+00  0.0000E+00  0.0000E+00  0.0000E+00  0.0000E+00  0.0000E+00  0.0000E+00  0.0000E+00  0.0000E+00  0.0000E+00  0.0000E+00  0.0000E+00  0.0000E+00  0.0000E+00  0.0000E+00  0.0000E+00  0.0000E+00  0.2503E+02  0.4920E+01  0.0000E+00  0.0000E+00
REACH    1        0     5  0.1052E+00  0.3156E-02  0.3153E-02  0.2850E-05  0.0000E+00  0.3182E-01  0.3182E-01  0.1247E+01  0.2503E-01  0.2501E-01  0.5526E-02  0.5519E-02  0.5399E+00  0.5394E+00  0.0000E+00  0.1080E-02  0.0000E+00  0.0000E+00  0.4055E-02  0.4135E-02  0.3499E-03  0.3166E-03  0.5681E+01  0.5644E+01  0.6984E+02  0.6028E+02  0.0000E+00  0.0000E+00  0.0000E+00  0.0000E+00  0.0000E+00  0.0000E+00  0.0000E+00  0.0000E+00  0.0000E+00  0.0000E+00  0.0000E+00  0.0000E+00  0.0000E+00  0.0000E+00  0.0000E+00  0.0000E+00  0.0000E+00  0.5655E+00  0.9654E-02  0.0000E+00  0.0000E+00
REACH    2        0     5  0.1195E+00  0.3534E-02  0.3533E-02  0.6867E-06  0.0000E+00  0.8961E+00  0.8961E+00  0.3982E+02  0.3396E+00  0.3396E+00  0.7643E-01  0.7641E-01  0.6085E+00  0.6084E+00  0.0000E+00  0.3093E-03  0.0000E+00  0.0000E+00  0.7328E-02  0.7371E-02  0.9195E-02  0.9026E-02  0.2141E+03  0.2138E+03  0.7703E+02  0.3770E+02  0.0000E+00  0.0000E+00  0.0000E+00  0.0000E+00  0.0000E+00  0.0000E+00  0.0000E+00  0.0000E+00  0.0000E+00  0.0000E+00  0.0000E+00  0.0000E+00  0.0000E+00  0.0000E+00  0.0000E+00  0.0000E+00  0.0000E+00  0.9482E+00  0.8378E-01  0.0000E+00  0.0000E+00
REACH    3        0     5  0.1497E+00  0.4210E-02  0.4207E-02  0.3039E-05  0.0000E+00  0.8780E-02  0.8780E-02  0.9443E-01  0.1130E-01  0.1130E-01  0.2451E-02  0.2448E-02  0.5660E+00  0.5656E+00  0.0000E+00  0.1187E-02  0.0000E+00  0.0000E+00  0.4814E-01  0.4819E-01  0.2006E-03  0.1669E-03  0.2728E+00  0.2718E+00  0.9345E+02  0.9070E+02  0.0000E+00  0.0000E+00  0.0000E+00  0.0000E+00  0.0000E+00  0.0000E+00  0.0000E+00  0.0000E+00  0.0000E+00  0.0000E+00  0.0000E+00  0.0000E+00  0.0000E+00  0.0000E+00  0.0000E+00  0.0000E+00  0.0000E+00  0.5781E+00  0.5064E-01  0.0000E+00  0.0000E+00
REACH    4        0     5  0.2099E+00  0.5743E-02  0.5742E-02  0.1281E-05  0.0000E+00  0.4869E-01  0.4869E-01  0.4435E+00  0.6554E-01  0.6553E-01  0.1369E-01  0.1368E-01  0.9028E+00  0.9027E+00  0.0000E+00  0.5162E-03  0.0000E+00  0.0000E+00  0.3272E-01  0.3276E-01  0.5886E-03  0.5721E-03  0.5093E+01  0.5087E+01  0.1257E+03  0.1170E+03  0.0000E+00  0.0000E+00  0.0000E+00  0.0000E+00  0.0000E+00  0.0000E+00  0.0000E+00  0.0000E+00  0.0000E+00  0.0000E+00  0.0000E+00  0.0000E+00  0.0000E+00  0.0000E+00  0.0000E+00  0.0000E+00  0.0000E+00  0.9687E+00  0.4645E-01  0.0000E+00  0.0000E+00
REACH    5        0     5  0.1275E+00  0.3768E-02  0.3765E-02  0.2292E-05  0.0000E+00  0.1176E-01  0.1176E-01  0.1765E+00  0.1917E-01  0.1916E-01  0.4156E-02  0.4152E-02  0.6867E+00  0.6864E+00  0.0000E+00  0.8912E-03  0.0000E+00  0.0000E+00  0.8251E-03  0.8791E-03  0.9728E-05  0.9398E-05  0.4290E+00  0.4276E+00  0.8340E+02  0.8080E+02  0.0000E+00  0.0000E+00  0.0000E+00  0.0000E+00  0.0000E+00  0.0000E+00  0.0000E+00  0.0000E+00  0.0000E+00  0.0000E+00  0.0000E+00  0.0000E+00  0.0000E+00  0.0000E+00  0.0000E+00  0.0000E+00  0.0000E+00  0.7064E+00  0.5032E-02  0.0000E+00  0.0000E+00
REACH    6        0     5  0.2672E+00  0.8043E-02  0.8038E-02  0.5034E-05  0.0000E+00  0.3392E-01  0.3392E-01  0.2411E+00  0.3858E-01  0.3857E-01  0.8336E-02  0.8329E-02  0.1410E+01  0.1409E+01  0.0000E+00  0.2063E-02  0.0000E+00  0.0000E+00  0.9436E-03  0.9608E-03  0.4843E-04  0.4703E-04  0.1097E+01  0.1094E+01  0.1779E+03  0.1722E+03  0.0000E+00  0.0000E+00  0.0000E+00  0.0000E+00  0.0000E+00  0.0000E+00  0.0000E+00  0.0000E+00  0.0000E+00  0.0000E+00  0.0000E+00  0.0000E+00  0.0000E+00  0.0000E+00  0.0000E+00  0.0000E+00  0.0000E+00  0.1450E+01  0.9289E-02  0.0000E+00  0.0000E+00
REACH    7        0     5  0.1536E+00  0.4490E-02  0.4483E-02  0.7497E-05  0.0000E+00  0.1794E-01  0.1794E-01  0.2202E+00  0.2027E-01  0.2024E-01  0.4408E-02  0.4399E-02  0.7154E+00  0.7143E+00  0.0000E+00  0.2956E-02  0.0000E+00  0.0000E+00  0.1116E-01  0.1135E-01  0.3103E-04  0.2331E-04  0.5822E+00  0.5775E+00  0.9936E+02  0.9607E+02  0.0000E+00  0.0000E+00  0.0000E+00  0.0000E+00  0.0000E+00  0.0000E+00  0.0000E+00  0.0000E+00  0.0000E+00  0.0000E+00  0.0000E+00  0.0000E+00  0.0000E+00  0.0000E+00  0.0000E+00  0.0000E+00  0.0000E+00  0.7375E+00  0.1575E-01  0.0000E+00  0.0000E+00
REACH    8        0     5  0.5338E+00  0.1562E-01  0.1559E-01  0.2892E-04  0.0000E+00  0.4164E+01  0.4164E+01  0.4127E+02  0.1503E+01  0.1499E+01  0.3359E+00  0.3349E+00  0.2690E+01  0.2686E+01  0.0000E+00  0.1425E-01  0.0000E+00  0.0000E+00  0.5605E-02  0.7007E-02  0.4630E-01  0.3775E-01  0.9175E+03  0.9049E+03  0.3397E+03  0.1768E+03  0.0000E+00  0.0000E+00  0.0000E+00  0.0000E+00  0.0000E+00  0.0000E+00  0.0000E+00  0.0000E+00  0.0000E+00  0.0000E+00  0.0000E+00  0.0000E+00  0.0000E+00  0.0000E+00  0.0000E+00  0.0000E+00  0.0000E+00  0.4199E+01  0.3419E+00  0.0000E+00  0.0000E+00
REACH    9        0     5  0.4934E+00  0.1463E-01  0.1463E-01  0.6164E-05  0.0000E+00  0.1194E+01  0.7210E+01  0.9663E+02  0.7047E+00  0.7043E+00  0.1577E+00  0.1575E+00  0.2577E+01  0.2576E+01  0.2954E-02  0.5759E-02  0.0000E+00  0.9779E-05  0.5875E-02  0.6167E-02  0.2126E-01  0.2035E-01  0.3304E+03  0.3292E+03  0.3135E+03  0.1798E+03  0.0000E+00  0.0000E+00  0.0000E+00  0.0000E+00  0.0000E+00  0.0000E+00  0.0000E+00  0.0000E+00  0.0000E+00  0.0000E+00  0.0000E+00  0.0000E+00  0.0000E+00  0.0000E+00  0.0000E+00  0.0000E+00  0.0000E+00  0.3286E+01  0.1637E+00  0.0000E+00  0.0000E+00
REACH   10        0     5  0.6810E+00  0.1999E-01  0.1998E-01  0.1144E-04  0.0000E+00  0.8111E+01  0.8518E+01  0.8843E+02  0.1057E+01  0.1056E+01  0.2368E+00  0.2365E+00  0.3418E+01  0.3416E+01  0.6068E-02  0.1147E-01  0.9779E-05  0.3297E-04  0.4426E-01  0.4492E-01  0.3032E-01  0.2855E-01  0.5436E+03  0.5403E+03  0.2578E+03  0.2346E+03  0.0000E+00  0.0000E+00  0.0000E+00  0.0000E+00  0.0000E+00  0.0000E+00  0.0000E+00  0.0000E+00  0.0000E+00  0.0000E+00  0.0000E+00  0.0000E+00  0.0000E+00  0.0000E+00  0.0000E+00  0.0000E+00  0.0000E+00  0.4484E+01  0.2815E+00  0.0000E+00  0.0000E+00
REACH   11        0     5  0.3872E+00  0.1081E-01  0.1080E-01  0.2405E-05  0.0000E+00  0.6714E-01  0.4043E+01  0.7608E+02  0.8800E-01  0.8799E-01  0.1855E-01  0.1855E-01  0.1659E+01  0.1658E+01  0.3473E-02  0.4468E-02  0.0000E+00  0.4568E-05  0.5910E-01  0.5919E-01  0.6722E-03  0.6533E-03  0.5719E+01  0.5711E+01  0.2260E+03  0.2252E+03  0.0000E+00  0.0000E+00  0.0000E+00  0.0000E+00  0.0000E+00  0.0000E+00  0.0000E+00  0.0000E+00  0.0000E+00  0.0000E+00  0.0000E+00  0.0000E+00  0.0000E+00  0.0000E+00  0.0000E+00  0.0000E+00  0.0000E+00  0.1751E+01  0.7774E-01  0.0000E+00  0.0000E+00
REACH   12        0     5  0.9590E+00  0.2739E-01  0.2738E-01  0.1111E-04  0.0000E+00  0.8209E+01  0.1376E+02  0.1041E+03  0.1594E+01  0.1593E+01  0.3549E+00  0.3546E+00  0.4459E+01  0.4457E+01  0.1872E-01  0.2397E-01  0.4568E-05  0.3557E-04  0.8320E-01  0.8384E-01  0.3849E-01  0.3721E-01  0.9108E+03  0.9075E+03  0.4240E+03  0.3182E+03  0.0000E+00  0.0000E+00  0.0000E+00  0.0000E+00  0.0000E+00  0.0000E+00  0.0000E+00  0.0000E+00  0.0000E+00  0.0000E+00  0.0000E+00  0.0000E+00  0.0000E+00  0.0000E+00  0.0000E+00  0.0000E+00  0.0000E+00  0.6074E+01  0.4384E+00  0.0000E+00  0.0000E+00
REACH   13        0     5  0.1268E+01  0.3607E-01  0.3606E-01  0.9863E-05  0.0000E+00  0.1409E+02  0.1199E+02  0.6953E+02  0.1750E+01  0.1749E+01  0.3897E+00  0.3893E+00  0.5634E+01  0.5633E+01  0.2515E-01  0.2993E-01  0.3557E-04  0.9080E-04  0.1814E+00  0.1820E+00  0.4139E-01  0.4042E-01  0.9851E+03  0.9812E+03  0.5078E+03  0.4187E+03  0.0000E+00  0.0000E+00  0.0000E+00  0.0000E+00  0.0000E+00  0.0000E+00  0.0000E+00  0.0000E+00  0.0000E+00  0.0000E+00  0.0000E+00  0.0000E+00  0.0000E+00  0.0000E+00  0.0000E+00  0.0000E+00  0.0000E+00  0.7412E+01  0.5713E+00  0.0000E+00  0.0000E+00
REACH   14        0     5  0.1379E+01  0.3938E-01  0.3938E-01  0.4258E-05  0.0000E+00  0.1202E+02  0.1649E+02  0.8469E+02  0.1774E+01  0.1773E+01  0.3949E+00  0.3948E+00  0.6173E+01  0.6172E+01  0.3101E-01  0.3302E-01  0.9080E-04  0.1193E-03  0.1935E+00  0.1938E+00  0.4076E-01  0.4039E-01  0.9868E+03  0.9855E+03  0.4827E+03  0.4635E+03  0.0000E+00  0.0000E+00  0.0000E+00  0.0000E+00  0.0000E+00  0.0000E+00  0.0000E+00  0.0000E+00  0.0000E+00  0.0000E+00  0.0000E+00  0.0000E+00  0.0000E+00  0.0000E+00  0.0000E+00  0.0000E+00  0.0000E+00  0.7979E+01  0.5885E+00  0.0000E+00  0.0000E+00
REACH   15        0     5  0.2071E+01  0.5962E-01  0.5961E-01  0.6742E-05  0.0000E+00  0.2501E+02  0.2501E+02  0.8573E+02  0.2834E+01  0.2833E+01  0.6321E+00  0.6319E+00  0.9664E+01  0.9663E+01  0.4449E-01  0.4772E-01  0.1523E-03  0.1998E-03  0.2408E+00  0.2412E+00  0.7053E-01  0.6982E-01  0.1526E+04  0.1524E+04  0.7039E+03  0.7011E+03  0.0000E+00  0.0000E+00  0.0000E+00  0.0000E+00  0.0000E+00  0.0000E+00  0.0000E+00  0.0000E+00  0.0000E+00  0.0000E+00  0.0000E+00  0.0000E+00  0.0000E+00  0.0000E+00  0.0000E+00  0.0000E+00  0.0000E+00  0.1254E+02  0.8731E+00  0.0000E+00  0.0000E+00
REACH    1        0     6  0.1052E+00  0.9169E-02  0.9166E-02  0.2609E-05  0.0000E+00  0.2305E+01  0.2305E+01  0.7176E+01  0.2703E+01  0.2702E+01  0.5877E+00  0.5872E+00  0.2003E+01  0.2002E+01  0.0000E+00  0.2317E-02  0.0000E+00  0.0000E+00  0.4450E-01  0.4499E-01  0.5027E-01  0.4913E-01  0.5914E+03  0.5889E+03  0.1194E+03  0.6473E+02  0.0000E+00  0.0000E+00  0.0000E+00  0.0000E+00  0.0000E+00  0.0000E+00  0.0000E+00  0.0000E+00  0.0000E+00  0.0000E+00  0.0000E+00  0.0000E+00  0.0000E+00  0.0000E+00  0.0000E+00  0.0000E+00  0.0000E+00  0.4707E+01  0.6322E+00  0.0000E+00  0.0000E+00
REACH    2        0     6  0.1195E+00  0.1038E-01  0.1038E-01  0.6261E-06  0.0000E+00  0.7736E+01  0.7736E+01  0.5683E+02  0.4521E+01  0.4521E+01  0.9914E+00  0.9912E+00  0.2178E+01  0.2178E+01  0.0000E+00  0.7002E-03  0.0000E+00  0.0000E+00  0.6443E-01  0.6460E-01  0.1147E+00  0.1140E+00  0.2023E+04  0.2021E+04  0.1345E+03  0.4182E+02  0.0000E+00  0.0000E+00  0.0000E+00  0.0000E+00  0.0000E+00  0.0000E+00  0.0000E+00  0.0000E+00  0.0000E+00  0.0000E+00  0.0000E+00  0.0000E+00  0.0000E+00  0.0000E+00  0.0000E+00  0.0000E+00  0.0000E+00  0.6699E+01  0.1056E+01  0.0000E+00  0.0000E+00
REACH    3        0     6  0.1497E+00  0.1258E-01  0.1258E-01  0.2738E-05  0.0000E+00  0.1762E+01  0.1762E+01  0.3200E+01  0.2585E+01  0.2584E+01  0.5594E+00  0.5590E+00  0.2052E+01  0.2052E+01  0.0000E+00  0.2072E-02  0.0000E+00  0.0000E+00  0.1991E+00  0.1995E+00  0.4657E-01  0.4586E-01  0.4446E+03  0.4432E+03  0.2005E+03  0.9416E+02  0.0000E+00  0.0000E+00  0.0000E+00  0.0000E+00  0.0000E+00  0.0000E+00  0.0000E+00  0.0000E+00  0.0000E+00  0.0000E+00  0.0000E+00  0.0000E+00  0.0000E+00  0.0000E+00  0.0000E+00  0.0000E+00  0.0000E+00  0.4638E+01  0.7585E+00  0.0000E+00  0.0000E+00
REACH    4        0     6  0.2099E+00  0.1759E-01  0.1758E-01  0.1142E-05  0.0000E+00  0.3776E+01  0.3776E+01  0.5679E+01  0.5406E+01  0.5405E+01  0.1150E+01  0.1150E+01  0.3313E+01  0.3313E+01  0.0000E+00  0.1164E-02  0.0000E+00  0.0000E+00  0.2136E+00  0.2139E+00  0.1145E+00  0.1139E+00  0.9615E+03  0.9604E+03  0.2574E+03  0.1220E+03  0.0000E+00  0.0000E+00  0.0000E+00  0.0000E+00  0.0000E+00  0.0000E+00  0.0000E+00  0.0000E+00  0.0000E+00  0.0000E+00  0.0000E+00  0.0000E+00  0.0000E+00  0.0000E+00  0.0000E+00  0.0000E+00  0.0000E+00  0.8719E+01  0.1364E+01  0.0000E+00  0.0000E+00
REACH    5        0     6  0.1275E+00  0.1102E-01  0.1102E-01  0.2046E-05  0.0000E+00  0.1994E+01  0.1994E+01  0.4591E+01  0.3257E+01  0.3256E+01  0.7065E+00  0.7061E+00  0.2430E+01  0.2429E+01  0.0000E+00  0.1660E-02  0.0000E+00  0.0000E+00  0.4998E-01  0.5031E-01  0.6240E-01  0.6162E-01  0.5203E+03  0.5191E+03  0.1378E+03  0.8724E+02  0.0000E+00  0.0000E+00  0.0000E+00  0.0000E+00  0.0000E+00  0.0000E+00  0.0000E+00  0.0000E+00  0.0000E+00  0.0000E+00  0.0000E+00  0.0000E+00  0.0000E+00  0.0000E+00  0.0000E+00  0.0000E+00  0.0000E+00  0.5687E+01  0.7564E+00  0.0000E+00  0.0000E+00
REACH    6        0     6  0.2672E+00  0.2329E-01  0.2329E-01  0.4422E-05  0.0000E+00  0.6431E+01  0.6431E+01  0.6844E+01  0.7070E+01  0.7067E+01  0.1536E+01  0.1535E+01  0.5254E+01  0.5253E+01  0.0000E+00  0.4266E-02  0.0000E+00  0.0000E+00  0.8123E-01  0.8204E-01  0.1294E+00  0.1277E+00  0.1640E+04  0.1635E+04  0.2964E+03  0.1863E+03  0.0000E+00  0.0000E+00  0.0000E+00  0.0000E+00  0.0000E+00  0.0000E+00  0.0000E+00  0.0000E+00  0.0000E+00  0.0000E+00  0.0000E+00  0.0000E+00  0.0000E+00  0.0000E+00  0.0000E+00  0.0000E+00  0.0000E+00  0.1232E+02  0.1617E+01  0.0000E+00  0.0000E+00
REACH    7        0     6  0.1536E+00  0.1323E-01  0.1322E-01  0.6623E-05  0.0000E+00  0.3403E+01  0.3403E+01  0.6296E+01  0.3874E+01  0.3871E+01  0.8375E+00  0.8364E+00  0.2758E+01  0.2757E+01  0.0000E+00  0.5435E-02  0.0000E+00  0.0000E+00  0.9495E-01  0.9600E-01  0.7204E-01  0.6967E-01  0.8681E+03  0.8627E+03  0.1793E+03  0.1037E+03  0.0000E+00  0.0000E+00  0.0000E+00  0.0000E+00  0.0000E+00  0.0000E+00  0.0000E+00  0.0000E+00  0.0000E+00  0.0000E+00  0.0000E+00  0.0000E+00  0.0000E+00  0.0000E+00  0.0000E+00  0.0000E+00  0.0000E+00  0.6633E+01  0.9324E+00  0.0000E+00  0.0000E+00
REACH    8        0     6  0.5338E+00  0.4601E-01  0.4598E-01  0.2488E-04  0.0000E+00  0.4102E+02  0.4102E+02  0.6150E+02  0.2095E+02  0.2093E+02  0.4595E+01  0.4587E+01  0.9823E+01  0.9817E+01  0.0000E+00  0.3143E-01  0.0000E+00  0.0000E+00  0.2082E+00  0.2158E+00  0.5379E+00  0.5161E+00  0.9689E+04  0.9600E+04  0.5736E+03  0.2003E+03  0.0000E+00  0.0000E+00  0.0000E+00  0.0000E+00  0.0000E+00  0.0000E+00  0.0000E+00  0.0000E+00  0.0000E+00  0.0000E+00  0.0000E+00  0.0000E+00  0.0000E+00  0.0000E+00  0.0000E+00  0.0000E+00  0.0000E+00  0.3078E+02  0.4803E+01  0.0000E+00  0.0000E+00
REACH    9        0     6  0.4934E+00  0.4283E-01  0.4282E-01  0.5359E-05  0.0000E+00  0.1817E+02  0.2652E+02  0.1103E+03  0.1622E+02  0.1622E+02  0.3536E+01  0.3535E+01  0.9398E+01  0.9397E+01  0.5926E-02  0.1248E-01  0.0000E+00  0.4898E-05  0.1849E+00  0.1865E+00  0.3683E+00  0.3648E+00  0.4913E+04  0.4901E+04  0.3796E+03  0.1913E+03  0.0000E+00  0.0000E+00  0.0000E+00  0.0000E+00  0.0000E+00  0.0000E+00  0.0000E+00  0.0000E+00  0.0000E+00  0.0000E+00  0.0000E+00  0.0000E+00  0.0000E+00  0.0000E+00  0.0000E+00  0.0000E+00  0.0000E+00  0.2563E+02  0.3721E+01  0.0000E+00  0.0000E+00
REACH   10        0     6  0.6810E+00  0.5889E-01  0.5888E-01  0.9851E-05  0.0000E+00  0.3482E+02  0.3439E+02  0.1012E+03  0.2206E+02  0.2205E+02  0.4811E+01  0.4808E+01  0.1230E+02  0.1230E+02  0.1319E-01  0.2628E-01  0.4898E-05  0.2131E-04  0.3664E+00  0.3698E+00  0.5099E+00  0.5032E+00  0.7081E+04  0.7054E+04  0.3229E+03  0.2476E+03  0.0000E+00  0.0000E+00  0.0000E+00  0.0000E+00  0.0000E+00  0.0000E+00  0.0000E+00  0.0000E+00  0.0000E+00  0.0000E+00  0.0000E+00  0.0000E+00  0.0000E+00  0.0000E+00  0.0000E+00  0.0000E+00  0.0000E+00  0.3437E+02  0.5177E+01  0.0000E+00  0.0000E+00
REACH   11        0     6  0.3872E+00  0.3272E-01  0.3271E-01  0.2110E-05  0.0000E+00  0.7242E+01  0.1617E+02  0.8887E+02  0.9514E+01  0.9512E+01  0.2037E+01  0.2037E+01  0.6208E+01  0.6208E+01  0.6599E-02  0.8922E-02  0.0000E+00  0.2303E-05  0.3690E+00  0.3695E+00  0.1900E+00  0.1891E+00  0.1840E+04  0.1837E+04  0.2613E+03  0.2370E+03  0.0000E+00  0.0000E+00  0.0000E+00  0.0000E+00  0.0000E+00  0.0000E+00  0.0000E+00  0.0000E+00  0.0000E+00  0.0000E+00  0.0000E+00  0.0000E+00  0.0000E+00  0.0000E+00  0.0000E+00  0.0000E+00  0.0000E+00  0.1573E+02  0.2406E+01  0.0000E+00  0.0000E+00
REACH   12        0     6  0.9590E+00  0.8183E-01  0.8182E-01  0.9457E-05  0.0000E+00  0.5746E+02  0.6005E+02  0.1216E+03  0.3117E+02  0.3116E+02  0.6780E+01  0.6777E+01  0.1639E+02  0.1638E+02  0.4035E-01  0.5224E-01  0.2303E-05  0.2726E-04  0.6528E+00  0.6558E+00  0.7223E+00  0.7168E+00  0.1151E+05  0.1149E+05  0.4863E+03  0.3438E+03  0.0000E+00  0.0000E+00  0.0000E+00  0.0000E+00  0.0000E+00  0.0000E+00  0.0000E+00  0.0000E+00  0.0000E+00  0.0000E+00  0.0000E+00  0.0000E+00  0.0000E+00  0.0000E+00  0.0000E+00  0.0000E+00  0.0000E+00  0.4759E+02  0.7433E+01  0.0000E+00  0.0000E+00
REACH   13        0     6  0.1268E+01  0.1081E+00  0.1081E+00  0.8327E-05  0.0000E+00  0.6552E+02  0.5111E+02  0.8312E+02  0.3719E+02  0.3718E+02  0.8090E+01  0.8086E+01  0.2058E+02  0.2058E+02  0.5431E-01  0.6797E-01  0.2726E-04  0.6719E-04  0.1065E+01  0.1069E+01  0.8404E+00  0.8352E+00  0.1291E+05  0.1288E+05  0.6448E+03  0.4402E+03  0.0000E+00  0.0000E+00  0.0000E+00  0.0000E+00  0.0000E+00  0.0000E+00  0.0000E+00  0.0000E+00  0.0000E+00  0.0000E+00  0.0000E+00  0.0000E+00  0.0000E+00  0.0000E+00  0.0000E+00  0.0000E+00  0.0000E+00  0.5783E+02  0.9156E+01  0.0000E+00  0.0000E+00
REACH   14        0     6  0.1379E+01  0.1178E+00  0.1177E+00  0.3589E-05  0.0000E+00  0.5342E+02  0.6864E+02  0.1002E+03  0.3988E+02  0.3988E+02  0.8674E+01  0.8672E+01  0.2258E+02  0.2258E+02  0.7029E-01  0.7551E-01  0.6719E-04  0.8716E-04  0.1137E+01  0.1138E+01  0.8843E+00  0.8823E+00  0.1347E+05  0.1346E+05  0.5165E+03  0.4860E+03  0.0000E+00  0.0000E+00  0.0000E+00  0.0000E+00  0.0000E+00  0.0000E+00  0.0000E+00  0.0000E+00  0.0000E+00  0.0000E+00  0.0000E+00  0.0000E+00  0.0000E+00  0.0000E+00  0.0000E+00  0.0000E+00  0.0000E+00  0.6253E+02  0.9810E+01  0.0000E+00  0.0000E+00
REACH   15        0     6  0.2071E+01  0.1775E+00  0.1775E+00  0.5612E-05  0.0000E+00  0.1031E+03  0.1031E+03  0.1004E+03  0.6216E+02  0.6216E+02  0.1353E+02  0.1353E+02  0.3506E+02  0.3506E+02  0.1018E+00  0.1098E+00  0.1085E-03  0.1352E-03  0.1522E+01  0.1524E+01  0.1394E+01  0.1391E+01  0.2053E+05  0.2051E+05  0.7480E+03  0.7365E+03  0.0000E+00  0.0000E+00  0.0000E+00  0.0000E+00  0.0000E+00  0.0000E+00  0.0000E+00  0.0000E+00  0.0000E+00  0.0000E+00  0.0000E+00  0.0000E+00  0.0000E+00  0.0000E+00  0.0000E+00  0.0000E+00  0.0000E+00  0.9733E+02  0.1505E+02  0.0000E+00  0.0000E+00
REACH    1        0     7  0.1052E+00  0.6512E-02  0.6508E-02  0.3593E-05  0.0000E+00  0.4633E+00  0.4633E+00  0.8143E+01  0.6034E+00  0.6027E+00  0.1317E+00  0.1315E+00  0.2081E+01  0.2080E+01  0.0000E+00  0.1483E-02  0.0000E+00  0.0000E+00  0.1254E-01  0.1275E-01  0.1183E-02  0.1113E-02  0.3918E+02  0.3893E+02  0.1397E+03  0.1042E+03  0.0000E+00  0.0000E+00  0.0000E+00  0.0000E+00  0.0000E+00  0.0000E+00  0.0000E+00  0.0000E+00  0.0000E+00  0.0000E+00  0.0000E+00  0.0000E+00  0.0000E+00  0.0000E+00  0.0000E+00  0.0000E+00  0.0000E+00  0.2685E+01  0.1442E+00  0.0000E+00  0.0000E+00
REACH    2        0     7  0.1195E+00  0.7341E-02  0.7340E-02  0.8550E-06  0.0000E+00  0.2666E+01  0.2666E+01  0.6383E+02  0.1224E+01  0.1224E+01  0.2735E+00  0.2734E+00  0.2717E+01  0.2717E+01  0.0000E+00  0.3965E-03  0.0000E+00  0.0000E+00  0.2287E-01  0.2294E-01  0.2990E-01  0.2933E-01  0.5952E+03  0.5945E+03  0.1546E+03  0.6686E+02  0.0000E+00  0.0000E+00  0.0000E+00  0.0000E+00  0.0000E+00  0.0000E+00  0.0000E+00  0.0000E+00  0.0000E+00  0.0000E+00  0.0000E+00  0.0000E+00  0.0000E+00  0.0000E+00  0.0000E+00  0.0000E+00  0.0000E+00  0.3942E+01  0.2964E+00  0.0000E+00  0.0000E+00
REACH    3        0     7  0.1497E+00  0.8873E-02  0.8870E-02  0.3352E-05  0.0000E+00  0.3257E+00  0.3257E+00  0.3504E+01  0.5201E+00  0.5197E+00  0.1130E+00  0.1129E+00  0.2223E+01  0.2222E+01  0.0000E+00  0.1380E-02  0.0000E+00  0.0000E+00  0.1078E+00  0.1079E+00  0.7423E-03  0.7098E-03  0.1984E+02  0.1977E+02  0.1944E+03  0.1695E+03  0.0000E+00  0.0000E+00  0.0000E+00  0.0000E+00  0.0000E+00  0.0000E+00  0.0000E+00  0.0000E+00  0.0000E+00  0.0000E+00  0.0000E+00  0.0000E+00  0.0000E+00  0.0000E+00  0.0000E+00  0.0000E+00  0.0000E+00  0.2743E+01  0.2208E+00  0.0000E+00  0.0000E+00
REACH    4        0     7  0.2099E+00  0.1243E-01  0.1243E-01  0.1135E-05  0.0000E+00  0.7240E+00  0.7240E+00  0.6344E+01  0.1334E+01  0.1334E+01  0.3030E+00  0.3030E+00  0.4046E+01  0.4046E+01  0.0000E+00  0.6833E-03  0.0000E+00  0.0000E+00  0.8749E-01  0.8760E-01  0.9212E-02  0.9039E-02  0.6469E+02  0.6461E+02  0.2657E+03  0.2072E+03  0.0000E+00  0.0000E+00  0.0000E+00  0.0000E+00  0.0000E+00  0.0000E+00  0.0000E+00  0.0000E+00  0.0000E+00  0.0000E+00  0.0000E+00  0.0000E+00  0.0000E+00  0.0000E+00  0.0000E+00  0.0000E+00  0.0000E+00  0.5381E+01  0.3906E+00  0.0000E+00  0.0000E+00
REACH    5        0     7  0.1275E+00  0.7771E-02  0.7769E-02  0.2012E-05  0.0000E+00  0.4583E+00  0.4583E+00  0.6322E+01  0.8789E+00  0.8785E+00  0.1911E+00  0.1910E+00  0.2512E+01  0.2511E+01  0.0000E+00  0.1115E-02  0.0000E+00  0.0000E+00  0.7493E-02  0.7640E-02  0.1337E-02  0.1305E-02  0.3371E+02  0.3362E+02  0.1646E+03  0.1361E+03  0.0000E+00  0.0000E+00  0.0000E+00  0.0000E+00  0.0000E+00  0.0000E+00  0.0000E+00  0.0000E+00  0.0000E+00  0.0000E+00  0.0000E+00  0.0000E+00  0.0000E+00  0.0000E+00  0.0000E+00  0.0000E+00  0.0000E+00  0.3391E+01  0.1986E+00  0.0000E+00  0.0000E+00
REACH    6        0     7  0.2672E+00  0.1656E-01  0.1655E-01  0.4245E-05  0.0000E+00  0.1218E+01  0.1218E+01  0.7823E+01  0.1557E+01  0.1556E+01  0.3395E+00  0.3393E+00  0.5469E+01  0.5468E+01  0.0000E+00  0.2454E-02  0.0000E+00  0.0000E+00  0.1062E-01  0.1084E-01  0.1827E-02  0.1782E-02  0.7456E+02  0.7435E+02  0.3542E+03  0.2900E+03  0.0000E+00  0.0000E+00  0.0000E+00  0.0000E+00  0.0000E+00  0.0000E+00  0.0000E+00  0.0000E+00  0.0000E+00  0.0000E+00  0.0000E+00  0.0000E+00  0.0000E+00  0.0000E+00  0.0000E+00  0.0000E+00  0.0000E+00  0.7026E+01  0.3502E+00  0.0000E+00  0.0000E+00
REACH    7        0     7  0.1536E+00  0.9369E-02  0.9362E-02  0.6501E-05  0.0000E+00  0.6428E+00  0.6428E+00  0.7199E+01  0.8293E+00  0.8284E+00  0.1807E+00  0.1804E+00  0.2997E+01  0.2995E+01  0.0000E+00  0.3511E-02  0.0000E+00  0.0000E+00  0.3229E-01  0.3270E-01  0.1096E-02  0.1018E-02  0.3969E+02  0.3942E+02  0.2013E+03  0.1652E+03  0.0000E+00  0.0000E+00  0.0000E+00  0.0000E+00  0.0000E+00  0.0000E+00  0.0000E+00  0.0000E+00  0.0000E+00  0.0000E+00  0.0000E+00  0.0000E+00  0.0000E+00  0.0000E+00  0.0000E+00  0.0000E+00  0.0000E+00  0.3827E+01  0.2131E+00  0.0000E+00  0.0000E+00
REACH    8        0     7  0.5338E+00  0.3250E-01  0.3247E-01  0.2373E-04  0.0000E+00  0.1297E+02  0.1297E+02  0.6868E+02  0.4898E+01  0.4891E+01  0.1081E+01  0.1078E+01  0.1043E+02  0.1043E+02  0.0000E+00  0.1655E-01  0.0000E+00  0.0000E+00  0.2549E-01  0.2793E-01  0.6751E-01  0.5999E-01  0.2498E+04  0.2471E+04  0.6840E+03  0.3108E+03  0.0000E+00  0.0000E+00  0.0000E+00  0.0000E+00  0.0000E+00  0.0000E+00  0.0000E+00  0.0000E+00  0.0000E+00  0.0000E+00  0.0000E+00  0.0000E+00  0.0000E+00  0.0000E+00  0.0000E+00  0.0000E+00  0.0000E+00  0.1533E+02  0.1106E+01  0.0000E+00  0.0000E+00
REACH    9        0     7  0.4934E+00  0.3032E-01  0.3032E-01  0.5190E-05  0.0000E+00  0.5065E+01  0.1786E+02  0.1376E+03  0.4301E+01  0.4300E+01  0.9501E+00  0.9496E+00  0.1012E+02  0.1012E+02  0.3569E-02  0.7185E-02  0.0000E+00  0.1371E-05  0.3650E-01  0.3712E-01  0.4512E-01  0.4385E-01  0.9990E+03  0.9961E+03  0.5491E+03  0.3032E+03  0.0000E+00  0.0000E+00  0.0000E+00  0.0000E+00  0.0000E+00  0.0000E+00  0.0000E+00  0.0000E+00  0.0000E+00  0.0000E+00  0.0000E+00  0.0000E+00  0.0000E+00  0.0000E+00  0.0000E+00  0.0000E+00  0.0000E+00  0.1442E+02  0.9867E+00  0.0000E+00  0.0000E+00
REACH   10        0     7  0.6810E+00  0.4158E-01  0.4157E-01  0.9615E-05  0.0000E+00  0.2071E+02  0.2244E+02  0.1256E+03  0.6030E+01  0.6027E+01  0.1333E+01  0.1332E+01  0.1430E+02  0.1430E+02  0.7581E-02  0.1473E-01  0.1371E-05  0.1189E-04  0.1303E+00  0.1316E+00  0.1038E+00  0.9796E-01  0.1611E+04  0.1604E+04  0.4533E+03  0.4002E+03  0.0000E+00  0.0000E+00  0.0000E+00  0.0000E+00  0.0000E+00  0.0000E+00  0.0000E+00  0.0000E+00  0.0000E+00  0.0000E+00  0.0000E+00  0.0000E+00  0.0000E+00  0.0000E+00  0.0000E+00  0.0000E+00  0.0000E+00  0.2034E+02  0.1463E+01  0.0000E+00  0.0000E+00
REACH   11        0     7  0.3872E+00  0.2310E-01  0.2309E-01  0.2081E-05  0.0000E+00  0.1378E+01  0.1074E+02  0.1091E+03  0.2206E+01  0.2205E+01  0.4927E+00  0.4925E+00  0.7213E+01  0.7212E+01  0.4194E-02  0.5486E-02  0.0000E+00  0.9384E-06  0.1540E+00  0.1542E+00  0.1031E-01  0.1013E-01  0.1050E+03  0.1048E+03  0.4013E+03  0.3973E+03  0.0000E+00  0.0000E+00  0.0000E+00  0.0000E+00  0.0000E+00  0.0000E+00  0.0000E+00  0.0000E+00  0.0000E+00  0.0000E+00  0.0000E+00  0.0000E+00  0.0000E+00  0.0000E+00  0.0000E+00  0.0000E+00  0.0000E+00  0.9423E+01  0.6467E+00  0.0000E+00  0.0000E+00
REACH   12        0     7  0.9590E+00  0.5773E-01  0.5772E-01  0.9209E-05  0.0000E+00  0.2381E+02  0.3600E+02  0.1469E+03  0.7409E+01  0.7406E+01  0.1639E+01  0.1638E+01  0.1805E+02  0.1804E+02  0.2204E-01  0.2868E-01  0.9384E-06  0.1637E-04  0.2215E+00  0.2226E+00  0.7150E-01  0.6981E-01  0.2589E+04  0.2581E+04  0.7536E+03  0.5575E+03  0.0000E+00  0.0000E+00  0.0000E+00  0.0000E+00  0.0000E+00  0.0000E+00  0.0000E+00  0.0000E+00  0.0000E+00  0.0000E+00  0.0000E+00  0.0000E+00  0.0000E+00  0.0000E+00  0.0000E+00  0.0000E+00  0.0000E+00  0.2548E+02  0.1860E+01  0.0000E+00  0.0000E+00
REACH   13        0     7  0.1268E+01  0.7616E-01  0.7615E-01  0.8213E-05  0.0000E+00  0.3751E+02  0.3202E+02  0.1030E+03  0.8920E+01  0.8917E+01  0.1969E+01  0.1968E+01  0.2254E+02  0.2254E+02  0.3006E-01  0.3671E-01  0.1637E-04  0.3757E-04  0.4505E+00  0.4519E+00  0.7819E-01  0.7693E-01  0.2833E+04  0.2824E+04  0.9318E+03  0.7330E+03  0.0000E+00  0.0000E+00  0.0000E+00  0.0000E+00  0.0000E+00  0.0000E+00  0.0000E+00  0.0000E+00  0.0000E+00  0.0000E+00  0.0000E+00  0.0000E+00  0.0000E+00  0.0000E+00  0.0000E+00  0.0000E+00  0.0000E+00  0.3149E+02  0.2419E+01  0.0000E+00  0.0000E+00
REACH   14        0     7  0.1379E+01  0.8302E-01  0.8301E-01  0.3512E-05  0.0000E+00  0.3248E+02  0.4387E+02  0.1242E+03  0.9520E+01  0.9518E+01  0.2099E+01  0.2099E+01  0.2462E+02  0.2462E+02  0.3819E-01  0.4085E-01  0.3757E-04  0.4865E-04  0.4803E+00  0.4808E+00  0.7808E-01  0.7759E-01  0.2863E+04  0.2860E+04  0.8453E+03  0.8077E+03  0.0000E+00  0.0000E+00  0.0000E+00  0.0000E+00  0.0000E+00  0.0000E+00  0.0000E+00  0.0000E+00  0.0000E+00  0.0000E+00  0.0000E+00  0.0000E+00  0.0000E+00  0.0000E+00  0.0000E+00  0.0000E+00  0.0000E+00  0.3418E+02  0.2579E+01  0.0000E+00  0.0000E+00
REACH   15        0     7  0.2071E+01  0.1252E+00  0.1252E+00  0.5472E-05  0.0000E+00  0.6632E+02  0.6632E+02  0.1242E+03  0.1562E+02  0.1562E+02  0.3447E+01  0.3446E+01  0.4071E+02  0.4071E+02  0.5558E-01  0.5987E-01  0.6053E-04  0.7802E-04  0.6192E+00  0.6200E+00  0.2407E+00  0.2381E+00  0.4467E+04  0.4462E+04  0.1221E+04  0.1214E+04  0.0000E+00  0.0000E+00  0.0000E+00  0.0000E+00  0.0000E+00  0.0000E+00  0.0000E+00  0.0000E+00  0.0000E+00  0.0000E+00  0.0000E+00  0.0000E+00  0.0000E+00  0.0000E+00  0.0000E+00  0.0000E+00  0.0000E+00  0.5639E+02  0.4067E+01  0.0000E+00  0.0000E+00
REACH    1        0     8  0.1052E+00  0.1485E-01  0.1485E-01  0.4516E-05  0.0000E+00  0.1412E+02  0.1412E+02  0.7480E+02  0.1971E+02  0.1970E+02  0.4305E+01  0.4300E+01  0.2117E+01  0.2116E+01  0.0000E+00  0.1242E-01  0.0000E+00  0.0000E+00  0.6548E-01  0.6955E-01  0.2920E+00  0.2823E+00  0.3264E+04  0.3246E+04  0.2466E+03  0.1507E+03  0.0000E+00  0.0000E+00  0.0000E+00  0.0000E+00  0.0000E+00  0.0000E+00  0.0000E+00  0.0000E+00  0.0000E+00  0.0000E+00  0.0000E+00  0.0000E+00  0.0000E+00  0.0000E+00  0.0000E+00  0.0000E+00  0.0000E+00  0.2183E+02  0.4369E+01  0.0000E+00  0.0000E+00
REACH    2        0     8  0.1195E+00  0.1685E-01  0.1685E-01  0.1075E-05  0.0000E+00  0.1869E+02  0.1869E+02  0.1209E+03  0.2203E+02  0.2203E+02  0.4825E+01  0.4823E+01  0.2404E+01  0.2404E+01  0.0000E+00  0.2958E-02  0.0000E+00  0.0000E+00  0.1104E+00  0.1114E+00  0.3643E+00  0.3618E+00  0.4551E+04  0.4545E+04  0.2741E+03  0.1336E+03  0.0000E+00  0.0000E+00  0.0000E+00  0.0000E+00  0.0000E+00  0.0000E+00  0.0000E+00  0.0000E+00  0.0000E+00  0.0000E+00  0.0000E+00  0.0000E+00  0.0000E+00  0.0000E+00  0.0000E+00  0.0000E+00  0.0000E+00  0.2444E+02  0.4935E+01  0.0000E+00  0.0000E+00
REACH    3        0     8  0.1497E+00  0.2087E-01  0.2086E-01  0.4719E-05  0.0000E+00  0.1115E+02  0.1115E+02  0.3972E+02  0.1828E+02  0.1827E+02  0.3975E+01  0.3972E+01  0.2511E+01  0.2510E+01  0.0000E+00  0.9252E-02  0.0000E+00  0.0000E+00  0.3104E+00  0.3132E+00  0.2562E+00  0.2503E+00  0.2539E+04  0.2528E+04  0.3884E+03  0.2213E+03  0.0000E+00  0.0000E+00  0.0000E+00  0.0000E+00  0.0000E+00  0.0000E+00  0.0000E+00  0.0000E+00  0.0000E+00  0.0000E+00  0.0000E+00  0.0000E+00  0.0000E+00  0.0000E+00  0.0000E+00  0.0000E+00  0.0000E+00  0.2079E+02  0.4285E+01  0.0000E+00  0.0000E+00
REACH    4        0     8  0.2099E+00  0.2910E-01  0.2910E-01  0.1949E-05  0.0000E+00  0.1800E+02  0.1800E+02  0.4870E+02  0.3047E+02  0.3047E+02  0.6716E+01  0.6714E+01  0.4455E+01  0.4455E+01  0.0000E+00  0.4741E-02  0.0000E+00  0.0000E+00  0.3431E+00  0.3446E+00  0.4680E+00  0.4649E+00  0.4128E+04  0.4122E+04  0.5066E+03  0.3019E+03  0.0000E+00  0.0000E+00  0.0000E+00  0.0000E+00  0.0000E+00  0.0000E+00  0.0000E+00  0.0000E+00  0.0000E+00  0.0000E+00  0.0000E+00  0.0000E+00  0.0000E+00  0.0000E+00  0.0000E+00  0.0000E+00  0.0000E+00  0.3493E+02  0.7059E+01  0.0000E+00  0.0000E+00
REACH    5        0     8  0.1275E+00  0.1801E-01  0.1800E-01  0.3526E-05  0.0000E+00  0.1341E+02  0.1341E+02  0.5922E+02  0.2543E+02  0.2542E+02  0.5535E+01  0.5531E+01  0.2685E+01  0.2684E+01  0.0000E+00  0.8529E-02  0.0000E+00  0.0000E+00  0.7452E-01  0.7730E-01  0.4174E+00  0.4098E+00  0.3253E+04  0.3243E+04  0.2860E+03  0.1876E+03  0.0000E+00  0.0000E+00  0.0000E+00  0.0000E+00  0.0000E+00  0.0000E+00  0.0000E+00  0.0000E+00  0.0000E+00  0.0000E+00  0.0000E+00  0.0000E+00  0.0000E+00  0.0000E+00  0.0000E+00  0.0000E+00  0.0000E+00  0.2811E+02  0.5609E+01  0.0000E+00  0.0000E+00
REACH    6        0     8  0.2672E+00  0.3772E-01  0.3771E-01  0.6952E-05  0.0000E+00  0.4136E+02  0.4136E+02  0.8580E+02  0.5207E+02  0.5204E+02  0.1138E+02  0.1137E+02  0.5521E+01  0.5520E+01  0.0000E+00  0.2237E-01  0.0000E+00  0.0000E+00  0.1169E+00  0.1242E+00  0.7704E+00  0.7559E+00  0.9539E+04  0.9500E+04  0.6187E+03  0.4009E+03  0.0000E+00  0.0000E+00  0.0000E+00  0.0000E+00  0.0000E+00  0.0000E+00  0.0000E+00  0.0000E+00  0.0000E+00  0.0000E+00  0.0000E+00  0.0000E+00  0.0000E+00  0.0000E+00  0.0000E+00  0.0000E+00  0.0000E+00  0.5758E+02  0.1150E+02  0.0000E+00  0.0000E+00
REACH    7        0     8  0.1536E+00  0.2149E-01  0.2148E-01  0.1069E-04  0.0000E+00  0.2171E+02  0.2171E+02  0.7858E+02  0.2687E+02  0.2684E+02  0.5871E+01  0.5860E+01  0.2944E+01  0.2942E+01  0.0000E+00  0.2539E-01  0.0000E+00  0.0000E+00  0.1474E+00  0.1556E+00  0.4044E+00  0.3848E+00  0.5011E+04  0.4970E+04  0.3614E+03  0.2276E+03  0.0000E+00  0.0000E+00  0.0000E+00  0.0000E+00  0.0000E+00  0.0000E+00  0.0000E+00  0.0000E+00  0.0000E+00  0.0000E+00  0.0000E+00  0.0000E+00  0.0000E+00  0.0000E+00  0.0000E+00  0.0000E+00  0.0000E+00  0.2981E+02  0.6016E+01  0.0000E+00  0.0000E+00
REACH    8        0     8  0.5338E+00  0.7445E-01  0.7441E-01  0.3435E-04  0.0000E+00  0.1123E+03  0.1123E+03  0.1540E+03  0.1022E+03  0.1021E+03  0.2234E+02  0.2230E+02  0.1112E+02  0.1112E+02  0.0000E+00  0.9960E-01  0.0000E+00  0.0000E+00  0.2609E+00  0.2931E+00  0.1610E+01  0.1547E+01  0.2557E+05  0.2535E+05  0.1211E+04  0.6192E+03  0.0000E+00  0.0000E+00  0.0000E+00  0.0000E+00  0.0000E+00  0.0000E+00  0.0000E+00  0.0000E+00  0.0000E+00  0.0000E+00  0.0000E+00  0.0000E+00  0.0000E+00  0.0000E+00  0.0000E+00  0.0000E+00  0.0000E+00  0.1133E+03  0.2259E+02  0.0000E+00  0.0000E+00
REACH    9        0     8  0.4934E+00  0.6963E-01  0.6963E-01  0.8300E-05  0.0000E+00  0.7361E+02  0.4273E+02  0.1443E+03  0.9739E+02  0.9735E+02  0.2131E+02  0.2129E+02  0.1036E+02  0.1036E+02  0.3090E-01  0.6042E-01  0.0000E+00  0.3350E-05  0.3018E+00  0.3117E+00  0.1543E+01  0.1526E+01  0.1765E+05  0.1760E+05  0.8062E+03  0.5867E+03  0.0000E+00  0.0000E+00  0.0000E+00  0.0000E+00  0.0000E+00  0.0000E+00  0.0000E+00  0.0000E+00  0.0000E+00  0.0000E+00  0.0000E+00  0.0000E+00  0.0000E+00  0.0000E+00  0.0000E+00  0.0000E+00  0.0000E+00  0.1078E+03  0.2161E+02  0.0000E+00  0.0000E+00
REACH   10        0     8  0.6810E+00  0.9602E-01  0.9601E-01  0.1515E-04  0.0000E+00  0.6503E+02  0.5378E+02  0.1341E+03  0.1289E+03  0.1288E+03  0.2819E+02  0.2816E+02  0.1375E+02  0.1375E+02  0.6337E-01  0.1270E+00  0.3350E-05  0.1409E-04  0.6136E+00  0.6352E+00  0.2067E+01  0.2034E+01  0.2308E+05  0.2297E+05  0.8945E+03  0.7888E+03  0.0000E+00  0.0000E+00  0.0000E+00  0.0000E+00  0.0000E+00  0.0000E+00  0.0000E+00  0.0000E+00  0.0000E+00  0.0000E+00  0.0000E+00  0.0000E+00  0.0000E+00  0.0000E+00  0.0000E+00  0.0000E+00  0.0000E+00  0.1427E+03  0.2879E+02  0.0000E+00  0.0000E+00
REACH   11        0     8  0.3872E+00  0.5375E-01  0.5375E-01  0.3545E-05  0.0000E+00  0.4004E+02  0.2343E+02  0.1144E+03  0.5864E+02  0.5863E+02  0.1286E+02  0.1285E+02  0.7611E+01  0.7611E+01  0.3013E-01  0.4155E-01  0.0000E+00  0.6958E-06  0.5912E+00  0.5950E+00  0.8733E+00  0.8674E+00  0.9168E+04  0.9152E+04  0.5940E+03  0.5620E+03  0.0000E+00  0.0000E+00  0.0000E+00  0.0000E+00  0.0000E+00  0.0000E+00  0.0000E+00  0.0000E+00  0.0000E+00  0.0000E+00  0.0000E+00  0.0000E+00  0.0000E+00  0.0000E+00  0.0000E+00  0.0000E+00  0.0000E+00  0.6628E+02  0.1345E+02  0.0000E+00  0.0000E+00
REACH   12        0     8  0.9590E+00  0.1334E+00  0.1334E+00  0.1450E-04  0.0000E+00  0.1374E+03  0.8751E+02  0.1640E+03  0.1660E+03  0.1659E+03  0.3629E+02  0.3626E+02  0.1931E+02  0.1931E+02  0.1412E+00  0.1971E+00  0.6958E-06  0.1788E-04  0.9960E+00  0.1015E+01  0.2513E+01  0.2487E+01  0.3495E+05  0.3484E+05  0.1277E+04  0.1115E+04  0.0000E+00  0.0000E+00  0.0000E+00  0.0000E+00  0.0000E+00  0.0000E+00  0.0000E+00  0.0000E+00  0.0000E+00  0.0000E+00  0.0000E+00  0.0000E+00  0.0000E+00  0.0000E+00  0.0000E+00  0.0000E+00  0.0000E+00  0.1854E+03  0.3728E+02  0.0000E+00  0.0000E+00
REACH   13        0     8  0.1268E+01  0.1767E+00  0.1767E+00  0.1357E-04  0.0000E+00  0.1125E+03  0.7396E+02  0.1036E+03  0.2069E+03  0.2068E+03  0.4519E+02  0.4516E+02  0.2432E+02  0.2432E+02  0.2064E+00  0.2783E+00  0.1788E-04  0.4419E-04  0.1667E+01  0.1692E+01  0.3124E+01  0.3098E+01  0.4080E+05  0.4066E+05  0.1731E+04  0.1465E+04  0.0000E+00  0.0000E+00  0.0000E+00  0.0000E+00  0.0000E+00  0.0000E+00  0.0000E+00  0.0000E+00  0.0000E+00  0.0000E+00  0.0000E+00  0.0000E+00  0.0000E+00  0.0000E+00  0.0000E+00  0.0000E+00  0.0000E+00  0.2314E+03  0.4685E+02  0.0000E+00  0.0000E+00
REACH   14        0     8  0.1379E+01  0.1924E+00  0.1924E+00  0.5478E-05  0.0000E+00  0.8809E+02  0.1058E+03  0.1324E+03  0.2265E+03  0.2265E+03  0.4946E+02  0.4945E+02  0.2644E+02  0.2644E+02  0.2907E+00  0.3162E+00  0.4419E-04  0.5509E-04  0.1799E+01  0.1808E+01  0.3381E+01  0.3371E+01  0.4391E+05  0.4386E+05  0.1635E+04  0.1602E+04  0.0000E+00  0.0000E+00  0.0000E+00  0.0000E+00  0.0000E+00  0.0000E+00  0.0000E+00  0.0000E+00  0.0000E+00  0.0000E+00  0.0000E+00  0.0000E+00  0.0000E+00  0.0000E+00  0.0000E+00  0.0000E+00  0.0000E+00  0.2533E+03  0.5126E+02  0.0000E+00  0.0000E+00
REACH   15        0     8  0.2071E+01  0.2899E+00  0.2899E+00  0.8481E-05  0.0000E+00  0.1599E+03  0.1599E+03  0.1326E+03  0.3565E+03  0.3565E+03  0.7786E+02  0.7784E+02  0.4034E+02  0.4034E+02  0.4432E+00  0.4848E+00  0.6918E-04  0.8580E-04  0.2470E+01  0.2485E+01  0.5429E+01  0.5414E+01  0.6692E+05  0.6685E+05  0.2418E+04  0.2403E+04  0.0000E+00  0.0000E+00  0.0000E+00  0.0000E+00  0.0000E+00  0.0000E+00  0.0000E+00  0.0000E+00  0.0000E+00  0.0000E+00  0.0000E+00  0.0000E+00  0.0000E+00  0.0000E+00  0.0000E+00  0.0000E+00  0.0000E+00  0.3973E+03  0.8033E+02  0.0000E+00  0.0000E+00
REACH    1        0     9  0.1052E+00  0.3889E-02  0.3885E-02  0.3788E-05  0.0000E+00  0.4204E+01  0.4204E+01  0.6518E+02  0.4717E+01  0.4711E+01  0.1031E+01  0.1029E+01  0.4803E+00  0.4799E+00  0.0000E+00  0.4168E-02  0.0000E+00  0.0000E+00  0.8841E-02  0.1004E-01  0.3852E-01  0.3644E-01  0.7097E+03  0.7046E+03  0.6907E+02  0.3962E+02  0.0000E+00  0.0000E+00  0.0000E+00  0.0000E+00  0.0000E+00  0.0000E+00  0.0000E+00  0.0000E+00  0.0000E+00  0.0000E+00  0.0000E+00  0.0000E+00  0.0000E+00  0.0000E+00  0.0000E+00  0.0000E+00  0.0000E+00  0.5195E+01  0.1039E+01  0.0000E+00  0.0000E+00
REACH    2        0     9  0.1195E+00  0.4382E-02  0.4381E-02  0.9144E-06  0.0000E+00  0.5939E+01  0.5939E+01  0.1063E+03  0.5407E+01  0.5406E+01  0.1185E+01  0.1184E+01  0.5756E+00  0.5755E+00  0.0000E+00  0.1023E-02  0.0000E+00  0.0000E+00  0.1550E-01  0.1580E-01  0.5272E-01  0.5211E-01  0.1200E+04  0.1198E+04  0.7533E+02  0.2999E+02  0.0000E+00  0.0000E+00  0.0000E+00  0.0000E+00  0.0000E+00  0.0000E+00  0.0000E+00  0.0000E+00  0.0000E+00  0.0000E+00  0.0000E+00  0.0000E+00  0.0000E+00  0.0000E+00  0.0000E+00  0.0000E+00  0.0000E+00  0.5982E+01  0.1200E+01  0.0000E+00  0.0000E+00
REACH    3        0     9  0.1497E+00  0.5169E-02  0.5165E-02  0.4096E-05  0.0000E+00  0.3233E+01  0.3233E+01  0.3544E+02  0.4013E+01  0.4009E+01  0.8750E+00  0.8738E+00  0.5690E+00  0.5686E+00  0.0000E+00  0.3414E-02  0.0000E+00  0.0000E+00  0.4890E-01  0.4975E-01  0.3096E-01  0.2974E-01  0.5372E+03  0.5340E+03  0.9918E+02  0.5568E+02  0.0000E+00  0.0000E+00  0.0000E+00  0.0000E+00  0.0000E+00  0.0000E+00  0.0000E+00  0.0000E+00  0.0000E+00  0.0000E+00  0.0000E+00  0.0000E+00  0.0000E+00  0.0000E+00  0.0000E+00  0.0000E+00  0.0000E+00  0.4581E+01  0.9235E+00  0.0000E+00  0.0000E+00
REACH    4        0     9  0.2099E+00  0.7853E-02  0.7851E-02  0.1761E-05  0.0000E+00  0.5204E+01  0.5204E+01  0.4234E+02  0.6643E+01  0.6641E+01  0.1469E+01  0.1468E+01  0.1083E+01  0.1083E+01  0.0000E+00  0.1675E-02  0.0000E+00  0.0000E+00  0.4742E-01  0.4787E-01  0.5859E-01  0.5792E-01  0.8826E+03  0.8809E+03  0.1452E+03  0.8683E+02  0.0000E+00  0.0000E+00  0.0000E+00  0.0000E+00  0.0000E+00  0.0000E+00  0.0000E+00  0.0000E+00  0.0000E+00  0.0000E+00  0.0000E+00  0.0000E+00  0.0000E+00  0.0000E+00  0.0000E+00  0.0000E+00  0.0000E+00  0.7726E+01  0.1516E+01  0.0000E+00  0.0000E+00
REACH    5        0     9  0.1275E+00  0.4711E-02  0.4708E-02  0.2697E-05  0.0000E+00  0.3996E+01  0.3996E+01  0.5160E+02  0.6188E+01  0.6185E+01  0.1348E+01  0.1347E+01  0.6461E+00  0.6458E+00  0.0000E+00  0.2428E-02  0.0000E+00  0.0000E+00  0.8263E-02  0.8893E-02  0.5504E-01  0.5394E-01  0.7034E+03  0.7017E+03  0.8157E+02  0.5040E+02  0.0000E+00  0.0000E+00  0.0000E+00  0.0000E+00  0.0000E+00  0.0000E+00  0.0000E+00  0.0000E+00  0.0000E+00  0.0000E+00  0.0000E+00  0.0000E+00  0.0000E+00  0.0000E+00  0.0000E+00  0.0000E+00  0.0000E+00  0.6834E+01  0.1356E+01  0.0000E+00  0.0000E+00
REACH    6        0     9  0.2672E+00  0.9959E-02  0.9954E-02  0.5847E-05  0.0000E+00  0.1229E+02  0.1229E+02  0.7455E+02  0.1207E+02  0.1206E+02  0.2641E+01  0.2639E+01  0.1250E+01  0.1249E+01  0.0000E+00  0.5420E-02  0.0000E+00  0.0000E+00  0.1262E-01  0.1393E-01  0.9784E-01  0.9587E-01  0.2002E+04  0.1997E+04  0.1761E+03  0.1087E+03  0.0000E+00  0.0000E+00  0.0000E+00  0.0000E+00  0.0000E+00  0.0000E+00  0.0000E+00  0.0000E+00  0.0000E+00  0.0000E+00  0.0000E+00  0.0000E+00  0.0000E+00  0.0000E+00  0.0000E+00  0.0000E+00  0.0000E+00  0.1332E+02  0.2653E+01  0.0000E+00  0.0000E+00
REACH    7        0     9  0.1536E+00  0.5747E-02  0.5738E-02  0.8842E-05  0.0000E+00  0.6440E+01  0.6440E+01  0.6882E+02  0.6024E+01  0.6017E+01  0.1320E+01  0.1318E+01  0.7030E+00  0.7020E+00  0.0000E+00  0.7001E-02  0.0000E+00  0.0000E+00  0.1984E-01  0.2151E-01  0.4974E-01  0.4705E-01  0.1031E+04  0.1024E+04  0.1033E+03  0.6362E+02  0.0000E+00  0.0000E+00  0.0000E+00  0.0000E+00  0.0000E+00  0.0000E+00  0.0000E+00  0.0000E+00  0.0000E+00  0.0000E+00  0.0000E+00  0.0000E+00  0.0000E+00  0.0000E+00  0.0000E+00  0.0000E+00  0.0000E+00  0.6726E+01  0.1339E+01  0.0000E+00  0.0000E+00
REACH    8        0     9  0.5338E+00  0.2070E-01  0.2067E-01  0.3385E-04  0.0000E+00  0.3431E+02  0.3431E+02  0.1312E+03  0.2228E+02  0.2225E+02  0.4877E+01  0.4868E+01  0.2577E+01  0.2574E+01  0.0000E+00  0.2977E-01  0.0000E+00  0.0000E+00  0.2624E-01  0.3335E-01  0.1980E+00  0.1855E+00  0.6135E+04  0.6082E+04  0.3664E+03  0.1633E+03  0.0000E+00  0.0000E+00  0.0000E+00  0.0000E+00  0.0000E+00  0.0000E+00  0.0000E+00  0.0000E+00  0.0000E+00  0.0000E+00  0.0000E+00  0.0000E+00  0.0000E+00  0.0000E+00  0.0000E+00  0.0000E+00  0.0000E+00  0.2485E+02  0.4901E+01  0.0000E+00  0.0000E+00
REACH    9        0     9  0.4934E+00  0.1831E-01  0.1830E-01  0.7252E-05  0.0000E+00  0.2225E+02  0.1016E+02  0.1017E+03  0.2302E+02  0.2301E+02  0.5041E+01  0.5038E+01  0.2415E+01  0.2415E+01  0.7848E-02  0.1529E-01  0.0000E+00  0.1354E-04  0.3637E-01  0.3838E-01  0.2067E+00  0.2038E+00  0.4051E+04  0.4042E+04  0.2193E+03  0.1424E+03  0.0000E+00  0.0000E+00  0.0000E+00  0.0000E+00  0.0000E+00  0.0000E+00  0.0000E+00  0.0000E+00  0.0000E+00  0.0000E+00  0.0000E+00  0.0000E+00  0.0000E+00  0.0000E+00  0.0000E+00  0.0000E+00  0.0000E+00  0.2544E+02  0.5077E+01  0.0000E+00  0.0000E+00
REACH   10        0     9  0.6810E+00  0.2484E-01  0.2483E-01  0.1356E-04  0.0000E+00  0.1705E+02  0.1232E+02  0.8845E+02  0.3048E+02  0.3047E+02  0.6671E+01  0.6666E+01  0.3231E+01  0.3229E+01  0.1631E-01  0.3199E-01  0.1354E-04  0.4912E-04  0.8559E-01  0.9004E-01  0.2761E+00  0.2708E+00  0.5413E+04  0.5393E+04  0.2129E+03  0.1857E+03  0.0000E+00  0.0000E+00  0.0000E+00  0.0000E+00  0.0000E+00  0.0000E+00  0.0000E+00  0.0000E+00  0.0000E+00  0.0000E+00  0.0000E+00  0.0000E+00  0.0000E+00  0.0000E+00  0.0000E+00  0.0000E+00  0.0000E+00  0.3373E+02  0.6756E+01  0.0000E+00  0.0000E+00
REACH   11        0     9  0.3872E+00  0.1443E-01  0.1443E-01  0.2885E-05  0.0000E+00  0.1173E+02  0.5938E+01  0.8737E+02  0.1290E+02  0.1289E+02  0.2837E+01  0.2836E+01  0.1853E+01  0.1853E+01  0.8676E-02  0.1134E-01  0.0000E+00  0.1186E-05  0.8424E-01  0.8494E-01  0.1071E+00  0.1063E+00  0.1919E+04  0.1916E+04  0.1677E+03  0.1603E+03  0.0000E+00  0.0000E+00  0.0000E+00  0.0000E+00  0.0000E+00  0.0000E+00  0.0000E+00  0.0000E+00  0.0000E+00  0.0000E+00  0.0000E+00  0.0000E+00  0.0000E+00  0.0000E+00  0.0000E+00  0.0000E+00  0.0000E+00  0.1476E+02  0.2921E+01  0.0000E+00  0.0000E+00
REACH   12        0     9  0.9590E+00  0.3637E-01  0.3636E-01  0.1319E-04  0.0000E+00  0.4070E+02  0.2072E+02  0.1149E+03  0.3627E+02  0.3625E+02  0.7947E+01  0.7943E+01  0.4570E+01  0.4568E+01  0.4111E-01  0.5408E-01  0.1186E-05  0.2985E-04  0.1357E+00  0.1392E+00  0.3024E+00  0.2985E+00  0.8080E+04  0.8060E+04  0.3476E+03  0.2969E+03  0.0000E+00  0.0000E+00  0.0000E+00  0.0000E+00  0.0000E+00  0.0000E+00  0.0000E+00  0.0000E+00  0.0000E+00  0.0000E+00  0.0000E+00  0.0000E+00  0.0000E+00  0.0000E+00  0.0000E+00  0.0000E+00  0.0000E+00  0.4088E+02  0.8082E+01  0.0000E+00  0.0000E+00
REACH   13        0     9  0.1268E+01  0.4699E-01  0.4697E-01  0.1302E-04  0.0000E+00  0.2817E+02  0.1363E+02  0.7601E+02  0.4577E+02  0.4574E+02  0.1002E+02  0.1001E+02  0.5754E+01  0.5753E+01  0.5750E-01  0.8345E-01  0.2985E-04  0.7270E-04  0.2476E+00  0.2560E+00  0.3802E+00  0.3740E+00  0.9397E+04  0.9351E+04  0.4515E+03  0.3765E+03  0.0000E+00  0.0000E+00  0.0000E+00  0.0000E+00  0.0000E+00  0.0000E+00  0.0000E+00  0.0000E+00  0.0000E+00  0.0000E+00  0.0000E+00  0.0000E+00  0.0000E+00  0.0000E+00  0.0000E+00  0.0000E+00  0.0000E+00  0.5157E+02  0.1026E+02  0.0000E+00  0.0000E+00
[...]
REACH   13        0    12  0.1268E+01  0.1338E+00  0.1337E+00  0.1808E-04  0.0000E+00  0.1914E+03  0.4668E+02  0.1022E+03  0.8119E+03  0.8114E+03  0.1765E+03  0.1764E+03  0.3581E+02  0.3580E+02  0.7023E+00  0.1083E+01  0.1889E-04  0.3660E-03  0.1211E+01  0.1347E+01  0.4878E+01  0.4809E+01  0.7780E+05  0.7745E+05  0.8205E+03  0.5812E+03  0.0000E+00  0.0000E+00  0.0000E+00  0.0000E+00  0.0000E+00  0.0000E+00  0.0000E+00  0.0000E+00  0.0000E+00  0.0000E+00  0.0000E+00  0.0000E+00  0.0000E+00  0.0000E+00  0.0000E+00  0.0000E+00  0.0000E+00  0.8482E+03  0.1777E+03  0.0000E+00  0.0000E+00
REACH   14        0    12  0.1379E+01  0.1458E+00  0.1458E+00  0.4681E-05  0.0000E+00  0.1161E+03  0.9357E+02  0.1478E+03  0.8926E+03  0.8925E+03  0.1940E+03  0.1940E+03  0.3897E+02  0.3897E+02  0.1142E+01  0.1222E+01  0.3660E-03  0.3973E-03  0.1434E+01  0.1462E+01  0.5289E+01  0.5272E+01  0.8477E+05  0.8470E+05  0.6552E+03  0.6357E+03  0.0000E+00  0.0000E+00  0.0000E+00  0.0000E+00  0.0000E+00  0.0000E+00  0.0000E+00  0.0000E+00  0.0000E+00  0.0000E+00  0.0000E+00  0.0000E+00  0.0000E+00  0.0000E+00  0.0000E+00  0.0000E+00  0.0000E+00  0.9327E+03  0.1955E+03  0.0000E+00  0.0000E+00
REACH   15        0    12  0.2071E+01  0.2203E+00  0.2203E+00  0.7246E-05  0.0000E+00  0.1429E+03  0.1429E+03  0.1485E+03  0.1390E+04  0.1390E+04  0.3024E+03  0.3024E+03  0.6074E+02  0.6074E+02  0.1608E+01  0.1733E+01  0.4467E-03  0.3920E-03  0.1971E+01  0.2015E+01  0.8429E+01  0.8401E+01  0.1304E+06  0.1303E+06  0.9720E+03  0.9554E+03  0.0000E+00  0.0000E+00  0.0000E+00  0.0000E+00  0.0000E+00  0.0000E+00  0.0000E+00  0.0000E+00  0.0000E+00  0.0000E+00  0.0000E+00  0.0000E+00  0.0000E+00  0.0000E+00  0.0000E+00  0.0000E+00  0.0000E+00  0.1453E+04  0.3044E+03  0.0000E+00  0.0000E+00
REACH    1        0  2016  0.1052E+00  0.7213E-02  0.7208E-02  0.4423E-05  0.0000E+00  0.1140E+03  0.1140E+03  0.1077E+03  0.1646E+03  0.1644E+03  0.3586E+02  0.3580E+02  0.1338E+02  0.1337E+02  0.0000E+00  0.1227E+00  0.0000E+00  0.0000E+00  0.3118E+00  0.3519E+00  0.1412E+01  0.1350E+01  0.1424E+05  0.1414E+05  0.1502E+04  0.9058E+03  0.0000E+00  0.0000E+00  0.0000E+00  0.0000E+00  0.0000E+00  0.0000E+00  0.0000E+00  0.0000E+00  0.0000E+00  0.0000E+00  0.0000E+00  0.0000E+00  0.0000E+00  0.0000E+00  0.0000E+00  0.0000E+00  0.0000E+00  0.1779E+03  0.3616E+02  0.0000E+00  0.0000E+00
REACH    2        0  2016  0.1195E+00  0.8171E-02  0.8170E-02  0.1063E-05  0.0000E+00  0.1268E+03  0.1268E+03  0.1221E+03  0.1783E+03  0.1782E+03  0.3892E+02  0.3891E+02  0.1848E+02  0.1848E+02  0.0000E+00  0.2695E-01  0.0000E+00  0.0000E+00  0.4707E+00  0.4794E+00  0.1972E+01  0.1954E+01  0.2126E+05  0.2123E+05  0.1709E+04  0.6093E+03  0.0000E+00  0.0000E+00  0.0000E+00  0.0000E+00  0.0000E+00  0.0000E+00  0.0000E+00  0.0000E+00  0.0000E+00  0.0000E+00  0.0000E+00  0.0000E+00  0.0000E+00  0.0000E+00  0.0000E+00  0.0000E+00  0.0000E+00  0.1967E+03  0.3939E+02  0.0000E+00  0.0000E+00
REACH    3        0  2016  0.1497E+00  0.1001E-01  0.1000E-01  0.4635E-05  0.0000E+00  0.8959E+02  0.8959E+02  0.5882E+02  0.1463E+03  0.1461E+03  0.3174E+02  0.3170E+02  0.1473E+02  0.1472E+02  0.0000E+00  0.1072E+00  0.0000E+00  0.0000E+00  0.1569E+01  0.1602E+01  0.1174E+01  0.1134E+01  0.1107E+05  0.1100E+05  0.2294E+04  0.1528E+04  0.0000E+00  0.0000E+00  0.0000E+00  0.0000E+00  0.0000E+00  0.0000E+00  0.0000E+00  0.0000E+00  0.0000E+00  0.0000E+00  0.0000E+00  0.0000E+00  0.0000E+00  0.0000E+00  0.0000E+00  0.0000E+00  0.0000E+00  0.1610E+03  0.3330E+02  0.0000E+00  0.0000E+00
REACH    4        0  2016  0.2099E+00  0.1414E-01  0.1414E-01  0.1905E-05  0.0000E+00  0.1408E+03  0.1408E+03  0.6915E+02  0.2391E+03  0.2390E+03  0.5187E+02  0.5185E+02  0.3418E+02  0.3417E+02  0.0000E+00  0.5336E-01  0.0000E+00  0.0000E+00  0.1496E+01  0.1513E+01  0.2220E+01  0.2197E+01  0.1839E+05  0.1836E+05  0.3114E+04  0.1719E+04  0.0000E+00  0.0000E+00  0.0000E+00  0.0000E+00  0.0000E+00  0.0000E+00  0.0000E+00  0.0000E+00  0.0000E+00  0.0000E+00  0.0000E+00  0.0000E+00  0.0000E+00  0.0000E+00  0.0000E+00  0.0000E+00  0.0000E+00  0.2733E+03  0.5336E+02  0.0000E+00  0.0000E+00
REACH    5        0  2016  0.1275E+00  0.8687E-02  0.8684E-02  0.3366E-05  0.0000E+00  0.1032E+03  0.1032E+03  0.8175E+02  0.1884E+03  0.1883E+03  0.4095E+02  0.4092E+02  0.1716E+02  0.1715E+02  0.0000E+00  0.7249E-01  0.0000E+00  0.0000E+00  0.3013E+00  0.3240E+00  0.1685E+01  0.1645E+01  0.1429E+05  0.1424E+05  0.1826E+04  0.1264E+04  0.0000E+00  0.0000E+00  0.0000E+00  0.0000E+00  0.0000E+00  0.0000E+00  0.0000E+00  0.0000E+00  0.0000E+00  0.0000E+00  0.0000E+00  0.0000E+00  0.0000E+00  0.0000E+00  0.0000E+00  0.0000E+00  0.0000E+00  0.2055E+03  0.4124E+02  0.0000E+00  0.0000E+00
REACH    6        0  2016  0.2672E+00  0.1834E-01  0.1833E-01  0.6427E-05  0.0000E+00  0.3350E+03  0.3350E+03  0.1249E+03  0.4501E+03  0.4499E+03  0.9806E+02  0.9799E+02  0.3598E+02  0.3596E+02  0.0000E+00  0.1663E+00  0.0000E+00  0.0000E+00  0.5314E+00  0.5832E+00  0.3839E+01  0.3765E+01  0.4032E+05  0.4019E+05  0.3757E+04  0.2469E+04  0.0000E+00  0.0000E+00  0.0000E+00  0.0000E+00  0.0000E+00  0.0000E+00  0.0000E+00  0.0000E+00  0.0000E+00  0.0000E+00  0.0000E+00  0.0000E+00  0.0000E+00  0.0000E+00  0.0000E+00  0.0000E+00  0.0000E+00  0.4860E+03  0.9857E+02  0.0000E+00  0.0000E+00
REACH    7        0  2016  0.1536E+00  0.1049E-01  0.1048E-01  0.1001E-04  0.0000E+00  0.1761E+03  0.1761E+03  0.1153E+03  0.2363E+03  0.2360E+03  0.5139E+02  0.5130E+02  0.2277E+02  0.2274E+02  0.0000E+00  0.2188E+00  0.0000E+00  0.0000E+00  0.6567E+00  0.7238E+00  0.2067E+01  0.1955E+01  0.2097E+05  0.2081E+05  0.2192E+04  0.1425E+04  0.0000E+00  0.0000E+00  0.0000E+00  0.0000E+00  0.0000E+00  0.0000E+00  0.0000E+00  0.0000E+00  0.0000E+00  0.0000E+00  0.0000E+00  0.0000E+00  0.0000E+00  0.0000E+00  0.0000E+00  0.0000E+00  0.0000E+00  0.2589E+03  0.5202E+02  0.0000E+00  0.0000E+00
REACH    8        0  2016  0.5338E+00  0.3656E-01  0.3653E-01  0.3494E-04  0.0000E+00  0.7919E+03  0.7919E+03  0.1692E+03  0.9049E+03  0.9037E+03  0.1974E+03  0.1970E+03  0.6999E+02  0.6991E+02  0.0000E+00  0.8972E+00  0.0000E+00  0.0000E+00  0.1203E+01  0.1481E+01  0.9572E+01  0.9067E+01  0.1117E+06  0.1108E+06  0.7462E+04  0.2929E+04  0.0000E+00  0.0000E+00  0.0000E+00  0.0000E+00  0.0000E+00  0.0000E+00  0.0000E+00  0.0000E+00  0.0000E+00  0.0000E+00  0.0000E+00  0.0000E+00  0.0000E+00  0.0000E+00  0.0000E+00  0.0000E+00  0.0000E+00  0.9745E+03  0.1985E+03  0.0000E+00  0.0000E+00
REACH    9        0  2016  0.4934E+00  0.3374E-01  0.3373E-01  0.7749E-05  0.0000E+00  0.5568E+03  0.2558E+03  0.9990E+02  0.7982E+03  0.7979E+03  0.1739E+03  0.1738E+03  0.7158E+02  0.7155E+02  0.2388E+00  0.4853E+00  0.0000E+00  0.5826E-03  0.1281E+01  0.1361E+01  0.7660E+01  0.7553E+01  0.7802E+05  0.7781E+05  0.5102E+04  0.2803E+04  0.0000E+00  0.0000E+00  0.0000E+00  0.0000E+00  0.0000E+00  0.0000E+00  0.0000E+00  0.0000E+00  0.0000E+00  0.0000E+00  0.0000E+00  0.0000E+00  0.0000E+00  0.0000E+00  0.0000E+00  0.0000E+00  0.0000E+00  0.8699E+03  0.1752E+03  0.0000E+00  0.0000E+00
REACH   10        0  2016  0.6810E+00  0.4638E-01  0.4637E-01  0.1479E-04  0.0000E+00  0.4049E+03  0.3134E+03  0.9021E+02  0.1031E+04  0.1030E+04  0.2246E+03  0.2244E+03  0.9809E+02  0.9804E+02  0.5123E+00  0.9983E+00  0.5826E-03  0.1614E-02  0.2799E+01  0.2958E+01  0.1013E+02  0.9943E+01  0.1027E+06  0.1022E+06  0.4454E+04  0.3731E+04  0.0000E+00  0.0000E+00  0.0000E+00  0.0000E+00  0.0000E+00  0.0000E+00  0.0000E+00  0.0000E+00  0.0000E+00  0.0000E+00  0.0000E+00  0.0000E+00  0.0000E+00  0.0000E+00  0.0000E+00  0.0000E+00  0.0000E+00  0.1129E+04  0.2274E+03  0.0000E+00  0.0000E+00
REACH   11        0  2016  0.3872E+00  0.2615E-01  0.2615E-01  0.3381E-05  0.0000E+00  0.3193E+03  0.1355E+03  0.8706E+02  0.4835E+03  0.4833E+03  0.1049E+03  0.1049E+03  0.5814E+02  0.5813E+02  0.2722E+00  0.3808E+00  0.0000E+00  0.5603E-04  0.2696E+01  0.2732E+01  0.4241E+01  0.4204E+01  0.3951E+05  0.3943E+05  0.3528E+04  0.3353E+04  0.0000E+00  0.0000E+00  0.0000E+00  0.0000E+00  0.0000E+00  0.0000E+00  0.0000E+00  0.0000E+00  0.0000E+00  0.0000E+00  0.0000E+00  0.0000E+00  0.0000E+00  0.0000E+00  0.0000E+00  0.0000E+00  0.0000E+00  0.5418E+03  0.1076E+03  0.0000E+00  0.0000E+00
REACH   12        0  2016  0.9590E+00  0.6518E-01  0.6516E-01  0.1374E-04  0.0000E+00  0.9374E+03  0.5429E+03  0.1227E+03  0.1415E+04  0.1415E+04  0.3080E+03  0.3079E+03  0.1311E+03  0.1311E+03  0.1278E+01  0.1730E+01  0.5603E-04  0.4123E-03  0.4749E+01  0.4896E+01  0.1357E+02  0.1340E+02  0.1520E+06  0.1515E+06  0.6868E+04  0.5407E+04  0.0000E+00  0.0000E+00  0.0000E+00  0.0000E+00  0.0000E+00  0.0000E+00  0.0000E+00  0.0000E+00  0.0000E+00  0.0000E+00  0.0000E+00  0.0000E+00  0.0000E+00  0.0000E+00  0.0000E+00  0.0000E+00  0.0000E+00  0.1548E+04  0.3128E+03  0.0000E+00  0.0000E+00
REACH   13        0  2016  0.1268E+01  0.8589E-01  0.8588E-01  0.1391E-04  0.0000E+00  0.7323E+03  0.3999E+03  0.7561E+02  0.1734E+04  0.1733E+04  0.3772E+03  0.3769E+03  0.1613E+03  0.1612E+03  0.1837E+01  0.2596E+01  0.4123E-03  0.1603E-02  0.8191E+01  0.8450E+01  0.1626E+02  0.1607E+02  0.1780E+06  0.1773E+06  0.9327E+04  0.7152E+04  0.0000E+00  0.0000E+00  0.0000E+00  0.0000E+00  0.0000E+00  0.0000E+00  0.0000E+00  0.0000E+00  0.0000E+00  0.0000E+00  0.0000E+00  0.0000E+00  0.0000E+00  0.0000E+00  0.0000E+00  0.0000E+00  0.0000E+00  0.1897E+04  0.3854E+03  0.0000E+00  0.0000E+00
REACH   14        0  2016  0.1379E+01  0.9349E-01  0.9348E-01  0.5439E-05  0.0000E+00  0.5139E+03  0.6031E+03  0.9622E+02  0.1898E+04  0.1897E+04  0.4127E+03  0.4126E+03  0.1746E+03  0.1746E+03  0.2718E+01  0.2929E+01  0.1603E-02  0.1914E-02  0.9000E+01  0.9070E+01  0.1742E+02  0.1736E+02  0.1914E+06  0.1913E+06  0.8164E+04  0.7851E+04  0.0000E+00  0.0000E+00  0.0000E+00  0.0000E+00  0.0000E+00  0.0000E+00  0.0000E+00  0.0000E+00  0.0000E+00  0.0000E+00  0.0000E+00  0.0000E+00  0.0000E+00  0.0000E+00  0.0000E+00  0.0000E+00  0.0000E+00  0.2075E+04  0.4217E+03  0.0000E+00  0.0000E+00
REACH   15        0  2016  0.2071E+01  0.1406E+00  0.1406E+00  0.8210E-05  0.0000E+00  0.9183E+03  0.9183E+03  0.9529E+02  0.2934E+04  0.2934E+04  0.6384E+03  0.6383E+03  0.2801E+03  0.2801E+03  0.3928E+01  0.4257E+01  0.3527E-02  0.4046E-02  0.1216E+02  0.1227E+02  0.2755E+02  0.2745E+02  0.2938E+06  0.2935E+06  0.1176E+05  0.1165E+05  0.0000E+00  0.0000E+00  0.0000E+00  0.0000E+00  0.0000E+00  0.0000E+00  0.0000E+00  0.0000E+00  0.0000E+00  0.0000E+00  0.0000E+00  0.0000E+00  0.0000E+00  0.0000E+00  0.0000E+00  0.0000E+00  0.0000E+00  0.3218E+04  0.6505E+03  0.0000E+00  0.0000E+00
REACH    1        0   4.0  0.1052E+00  0.8371E-02  0.8366E-02  0.4731E-05  0.0000E+00  0.3632E+03  0.3632E+03  0.2243E+03  0.4362E+03  0.4357E+03  0.9587E+02  0.9572E+02  0.1700E+02  0.1698E+02  0.0000E+00  0.2965E+00  0.0000E+00  0.0000E+00  0.3934E+00  0.4972E+00  0.5430E+01  0.5222E+01  0.5352E+05  0.5319E+05  0.1597E+04  0.9106E+03  0.0000E+00  0.0000E+00  0.0000E+00  0.0000E+00  0.0000E+00  0.0000E+00  0.0000E+00  0.0000E+00  0.0000E+00  0.0000E+00  0.0000E+00  0.0000E+00  0.0000E+00  0.0000E+00  0.0000E+00  0.0000E+00  0.0000E+00  0.4530E+03  0.9622E+02  0.0000E+00  0.0000E+00
REACH    2        0   4.0  0.1195E+00  0.9483E-02  0.9482E-02  0.1116E-05  0.0000E+00  0.3311E+03  0.3311E+03  0.2065E+03  0.4752E+03  0.4751E+03  0.1043E+03  0.1043E+03  0.2332E+02  0.2331E+02  0.0000E+00  0.6765E-01  0.0000E+00  0.0000E+00  0.6134E+00  0.6370E+00  0.6465E+01  0.6412E+01  0.5697E+05  0.5689E+05  0.1800E+04  0.6694E+03  0.0000E+00  0.0000E+00  0.0000E+00  0.0000E+00  0.0000E+00  0.0000E+00  0.0000E+00  0.0000E+00  0.0000E+00  0.0000E+00  0.0000E+00  0.0000E+00  0.0000E+00  0.0000E+00  0.0000E+00  0.0000E+00  0.0000E+00  0.4985E+03  0.1049E+03  0.0000E+00  0.0000E+00
REACH    3        0   4.0  0.1497E+00  0.1158E-01  0.1158E-01  0.4864E-05  0.0000E+00  0.2889E+03  0.2889E+03  0.1248E+03  0.4157E+03  0.4153E+03  0.9083E+02  0.9073E+02  0.1864E+02  0.1863E+02  0.0000E+00  0.2347E+00  0.0000E+00  0.0000E+00  0.1885E+01  0.1964E+01  0.4794E+01  0.4661E+01  0.4244E+05  0.4222E+05  0.2504E+04  0.1440E+04  0.0000E+00  0.0000E+00  0.0000E+00  0.0000E+00  0.0000E+00  0.0000E+00  0.0000E+00  0.0000E+00  0.0000E+00  0.0000E+00  0.0000E+00  0.0000E+00  0.0000E+00  0.0000E+00  0.0000E+00  0.0000E+00  0.0000E+00  0.4342E+03  0.9269E+02  0.0000E+00  0.0000E+00
REACH    4        0   4.0  0.2099E+00  0.1635E-01  0.1635E-01  0.1962E-05  0.0000E+00  0.4383E+03  0.4383E+03  0.1403E+03  0.6628E+03  0.6626E+03  0.1448E+03  0.1447E+03  0.4195E+02  0.4194E+02  0.0000E+00  0.1184E+00  0.0000E+00  0.0000E+00  0.1877E+01  0.1918E+01  0.8241E+01  0.8175E+01  0.6612E+05  0.6601E+05  0.3337E+04  0.1783E+04  0.0000E+00  0.0000E+00  0.0000E+00  0.0000E+00  0.0000E+00  0.0000E+00  0.0000E+00  0.0000E+00  0.0000E+00  0.0000E+00  0.0000E+00  0.0000E+00  0.0000E+00  0.0000E+00  0.0000E+00  0.0000E+00  0.0000E+00  0.7046E+03  0.1466E+03  0.0000E+00  0.0000E+00
REACH    5        0   4.0  0.1275E+00  0.1009E-01  0.1008E-01  0.3322E-05  0.0000E+00  0.3196E+03  0.3196E+03  0.1650E+03  0.5322E+03  0.5319E+03  0.1166E+03  0.1165E+03  0.2175E+02  0.2175E+02  0.0000E+00  0.1885E+00  0.0000E+00  0.0000E+00  0.4065E+00  0.4715E+00  0.6841E+01  0.6698E+01  0.5182E+05  0.5165E+05  0.1907E+04  0.1225E+04  0.0000E+00  0.0000E+00  0.0000E+00  0.0000E+00  0.0000E+00  0.0000E+00  0.0000E+00  0.0000E+00  0.0000E+00  0.0000E+00  0.0000E+00  0.0000E+00  0.0000E+00  0.0000E+00  0.0000E+00  0.0000E+00  0.0000E+00  0.5539E+03  0.1170E+03  0.0000E+00  0.0000E+00
REACH    6        0   4.0  0.2672E+00  0.2128E-01  0.2128E-01  0.6459E-05  0.0000E+00  0.1072E+04  0.1072E+04  0.2611E+03  0.1147E+04  0.1146E+04  0.2523E+03  0.2521E+03  0.4537E+02  0.4535E+02  0.0000E+00  0.4386E+00  0.0000E+00  0.0000E+00  0.6870E+00  0.8387E+00  0.1421E+02  0.1394E+02  0.1531E+06  0.1526E+06  0.4000E+04  0.2481E+04  0.0000E+00  0.0000E+00  0.0000E+00  0.0000E+00  0.0000E+00  0.0000E+00  0.0000E+00  0.0000E+00  0.0000E+00  0.0000E+00  0.0000E+00  0.0000E+00  0.0000E+00  0.0000E+00  0.0000E+00  0.0000E+00  0.0000E+00  0.1192E+04  0.2529E+03  0.0000E+00  0.0000E+00
REACH    7        0   4.0  0.1536E+00  0.1215E-01  0.1214E-01  0.1017E-04  0.0000E+00  0.5627E+03  0.5627E+03  0.2405E+03  0.5937E+03  0.5929E+03  0.1305E+03  0.1303E+03  0.2761E+02  0.2758E+02  0.0000E+00  0.5486E+00  0.0000E+00  0.0000E+00  0.8491E+00  0.1037E+01  0.7522E+01  0.7117E+01  0.7945E+05  0.7878E+05  0.2346E+04  0.1423E+04  0.0000E+00  0.0000E+00  0.0000E+00  0.0000E+00  0.0000E+00  0.0000E+00  0.0000E+00  0.0000E+00  0.0000E+00  0.0000E+00  0.0000E+00  0.0000E+00  0.0000E+00  0.0000E+00  0.0000E+00  0.0000E+00  0.0000E+00  0.6211E+03  0.1313E+03  0.0000E+00  0.0000E+00
REACH    8        0   4.0  0.5338E+00  0.4231E-01  0.4227E-01  0.3423E-04  0.0000E+00  0.2210E+04  0.2210E+04  0.3045E+03  0.2217E+04  0.2214E+04  0.4870E+03  0.4862E+03  0.8756E+02  0.8748E+02  0.0000E+00  0.1944E+01  0.0000E+00  0.0000E+00  0.1544E+01  0.2206E+01  0.2907E+02  0.2788E+02  0.3304E+06  0.3277E+06  0.7921E+04  0.3218E+04  0.0000E+00  0.0000E+00  0.0000E+00  0.0000E+00  0.0000E+00  0.0000E+00  0.0000E+00  0.0000E+00  0.0000E+00  0.0000E+00  0.0000E+00  0.0000E+00  0.0000E+00  0.0000E+00  0.0000E+00  0.0000E+00  0.0000E+00  0.2304E+04  0.4884E+03  0.0000E+00  0.0000E+00
REACH    9        0   4.0  0.4934E+00  0.3917E-01  0.3916E-01  0.7860E-05  0.0000E+00  0.1667E+04  0.2998E+03  0.1120E+03  0.2076E+04  0.2075E+04  0.4561E+03  0.4558E+03  0.8864E+02  0.8861E+02  0.6270E+00  0.1239E+01  0.0000E+00  0.5413E-03  0.1819E+01  0.2034E+01  0.2658E+02  0.2626E+02  0.2566E+06  0.2559E+06  0.5139E+04  0.3072E+04  0.0000E+00  0.0000E+00  0.0000E+00  0.0000E+00  0.0000E+00  0.0000E+00  0.0000E+00  0.0000E+00  0.0000E+00  0.0000E+00  0.0000E+00  0.0000E+00  0.0000E+00  0.0000E+00  0.0000E+00  0.0000E+00  0.0000E+00  0.2165E+04  0.4579E+03  0.0000E+00  0.0000E+00
REACH   10        0   4.0  0.6810E+00  0.5383E-01  0.5381E-01  0.1493E-04  0.0000E+00  0.6983E+03  0.3648E+03  0.1007E+03  0.2712E+04  0.2711E+04  0.5954E+03  0.5948E+03  0.1223E+03  0.1222E+03  0.1307E+01  0.2657E+01  0.5413E-03  0.1643E-02  0.3825E+01  0.4300E+01  0.3499E+02  0.3437E+02  0.3252E+06  0.3237E+06  0.4872E+04  0.4082E+04  0.0000E+00  0.0000E+00  0.0000E+00  0.0000E+00  0.0000E+00  0.0000E+00  0.0000E+00  0.0000E+00  0.0000E+00  0.0000E+00  0.0000E+00  0.0000E+00  0.0000E+00  0.0000E+00  0.0000E+00  0.0000E+00  0.0000E+00  0.2835E+04  0.5991E+03  0.0000E+00  0.0000E+00
REACH   11        0   4.0  0.3872E+00  0.3025E-01  0.3025E-01  0.3368E-05  0.0000E+00  0.1009E+04  0.1662E+03  0.9307E+02  0.1286E+04  0.1286E+04  0.2815E+03  0.2814E+03  0.7103E+02  0.7102E+02  0.6671E+00  0.9087E+00  0.0000E+00  0.8601E-04  0.3505E+01  0.3589E+01  0.1572E+02  0.1561E+02  0.1462E+06  0.1459E+06  0.3630E+04  0.3408E+04  0.0000E+00  0.0000E+00  0.0000E+00  0.0000E+00  0.0000E+00  0.0000E+00  0.0000E+00  0.0000E+00  0.0000E+00  0.0000E+00  0.0000E+00  0.0000E+00  0.0000E+00  0.0000E+00  0.0000E+00  0.0000E+00  0.0000E+00  0.1357E+04  0.2850E+03  0.0000E+00  0.0000E+00
REACH   12        0   4.0  0.9590E+00  0.7541E-01  0.7539E-01  0.1346E-04  0.0000E+00  0.2406E+04  0.6546E+03  0.1322E+03  0.3588E+04  0.3586E+04  0.7867E+03  0.7862E+03  0.1624E+03  0.1624E+03  0.2853E+01  0.3912E+01  0.8601E-04  0.6123E-03  0.6440E+01  0.6808E+01  0.4470E+02  0.4424E+02  0.4795E+06  0.4781E+06  0.7257E+04  0.5888E+04  0.0000E+00  0.0000E+00  0.0000E+00  0.0000E+00  0.0000E+00  0.0000E+00  0.0000E+00  0.0000E+00  0.0000E+00  0.0000E+00  0.0000E+00  0.0000E+00  0.0000E+00  0.0000E+00  0.0000E+00  0.0000E+00  0.0000E+00  0.3753E+04  0.7930E+03  0.0000E+00  0.0000E+00
REACH   13        0   4.0  0.1268E+01  0.9942E-01  0.9940E-01  0.1412E-04  0.0000E+00  0.1229E+04  0.4813E+03  0.8225E+02  0.4481E+04  0.4479E+04  0.9821E+03  0.9813E+03  0.2007E+03  0.2007E+03  0.4146E+01  0.5866E+01  0.6123E-03  0.2367E-02  0.1083E+02  0.1144E+02  0.5531E+02  0.5478E+02  0.5687E+06  0.5667E+06  0.9908E+04  0.7736E+04  0.0000E+00  0.0000E+00  0.0000E+00  0.0000E+00  0.0000E+00  0.0000E+00  0.0000E+00  0.0000E+00  0.0000E+00  0.0000E+00  0.0000E+00  0.0000E+00  0.0000E+00  0.0000E+00  0.0000E+00  0.0000E+00  0.0000E+00  0.4686E+04  0.9928E+03  0.0000E+00  0.0000E+00
REACH   14        0   4.0  0.1379E+01  0.1082E+00  0.1082E+00  0.5453E-05  0.0000E+00  0.8445E+03  0.7154E+03  0.1049E+03  0.4915E+04  0.4914E+04  0.1077E+04  0.1077E+04  0.2176E+03  0.2176E+03  0.6162E+01  0.6730E+01  0.2367E-02  0.2974E-02  0.1217E+02  0.1237E+02  0.6000E+02  0.5981E+02  0.6199E+06  0.6192E+06  0.8770E+04  0.8484E+04  0.0000E+00  0.0000E+00  0.0000E+00  0.0000E+00  0.0000E+00  0.0000E+00  0.0000E+00  0.0000E+00  0.0000E+00  0.0000E+00  0.0000E+00  0.0000E+00  0.0000E+00  0.0000E+00  0.0000E+00  0.0000E+00  0.0000E+00  0.5139E+04  0.1089E+04  0.0000E+00  0.0000E+00
REACH   15        0   4.0  0.2071E+01  0.1629E+00  0.1629E+00  0.8023E-05  0.0000E+00  0.1086E+04  0.1086E+04  0.1040E+03  0.7643E+04  0.7643E+04  0.1676E+04  0.1675E+04  0.3483E+03  0.3483E+03  0.9387E+01  0.1017E+02  0.4616E-02  0.5468E-02  0.1686E+02  0.1713E+02  0.9466E+02  0.9440E+02  0.9440E+06  0.9431E+06  0.1275E+05  0.1264E+05  0.0000E+00  0.0000E+00  0.0000E+00  0.0000E+00  0.0000E+00  0.0000E+00  0.0000E+00  0.0000E+00  0.0000E+00  0.0000E+00  0.0000E+00  0.0000E+00  0.0000E+00  0.0000E+00  0.0000E+00  0.0000E+00  0.0000E+00  0.8001E+04  0.1693E+04  0.0000E+00  0.0000E+00
