1
    SWAT Dec 23 2016    VER 2016/Rev 664                                                                 0/ 0/   0      0: 0: 0

    General Input/Output section (file.cio):                                        
    2/12/2020 14:38:35 QSWAT Workflow v1.5.2                                        
                                                                                    
         Number of years in run:    5
         Area of watershed:        1.675 km2
1
    SWAT Dec 23 2016    VER 2016/Rev 664                                            

    General Input/Output section (file.cio):                                        
    2/12/2020 14:38:35 QSWAT Workflow v1.5.2                                        
                                                                                    
Annual Summary for Watershed in year    1 of simulation

UNIT                                    PERCO    TILE                           WATER     SED     NO3     NO3     NO3     NO3        N       P       P
TIME     PREC    SURQ    LATQ     GWQ    LATE       Q     SW       ET     PET   YIELD   YIELD    SURQ    LATQ    PERC    CROP  ORGANIC SOLUBLE ORGANIC TILENO3
         (mm)    (mm)    (mm)    (mm)    (mm)    (mm)    (mm)    (mm)    (mm)    (mm)   (t/ha)  ------------------(kg nutrient/ha)-------------------- (kg/ha)
1
    SWAT Dec 23 2016    VER 2016/Rev 664                                            

    General Input/Output section (file.cio):                                        
    2/12/2020 14:38:35 QSWAT Workflow v1.5.2                                        
                                                                                    
Annual Summary for Watershed in year    2 of simulation

UNIT                                    PERCO    TILE                           WATER     SED     NO3     NO3     NO3     NO3        N       P       P
TIME     PREC    SURQ    LATQ     GWQ    LATE       Q     SW       ET     PET   YIELD   YIELD    SURQ    LATQ    PERC    CROP  ORGANIC SOLUBLE ORGANIC TILENO3
         (mm)    (mm)    (mm)    (mm)    (mm)    (mm)    (mm)    (mm)    (mm)    (mm)   (t/ha)  ------------------(kg nutrient/ha)-------------------- (kg/ha)
1
    SWAT Dec 23 2016    VER 2016/Rev 664                                            

    General Input/Output section (file.cio):                                        
    2/12/2020 14:38:35 QSWAT Workflow v1.5.2                                        
                                                                                    
Annual Summary for Watershed in year    3 of simulation

UNIT                                    PERCO    TILE                           WATER     SED     NO3     NO3     NO3     NO3        N       P       P
TIME     PREC    SURQ    LATQ     GWQ    LATE       Q     SW       ET     PET   YIELD   YIELD    SURQ    LATQ    PERC    CROP  ORGANIC SOLUBLE ORGANIC TILENO3
         (mm)    (mm)    (mm)    (mm)    (mm)    (mm)    (mm)    (mm)    (mm)    (mm)   (t/ha)  ------------------(kg nutrient/ha)-------------------- (kg/ha)
1
    SWAT Dec 23 2016    VER 2016/Rev 664                                            

    General Input/Output section (file.cio):                                        
    2/12/2020 14:38:35 QSWAT Workflow v1.5.2                                        
                                                                                    
Annual Summary for Watershed in year    4 of simulation

UNIT                                    PERCO    TILE                           WATER     SED     NO3     NO3     NO3     NO3        N       P       P
TIME     PREC    SURQ    LATQ     GWQ    LATE       Q     SW       ET     PET   YIELD   YIELD    SURQ    LATQ    PERC    CROP  ORGANIC SOLUBLE ORGANIC TILENO3
         (mm)    (mm)    (mm)    (mm)    (mm)    (mm)    (mm)    (mm)    (mm)    (mm)   (t/ha)  ------------------(kg nutrient/ha)-------------------- (kg/ha)
    1   26.90    4.28   10.46    0.04    0.09    0.00   92.54    2.30    2.33   14.78    0.35    0.00    0.01    0.00    0.00     0.71    0.00    0.09    0.00
    2    1.00    0.00    3.59    0.04    0.00    0.00   90.49    3.05    3.90    3.64    0.00    0.00    0.00    0.00    0.00     0.00    0.00    0.00    0.00
    3   15.50    0.70    7.49    0.04    0.06    0.00   91.80    3.91    4.71    8.23    0.05    0.00    0.01    0.00    0.00     0.11    0.00    0.01    0.00
    4    6.40    0.00    4.42    0.04    0.01    0.00   90.85    4.52    5.74    4.46    0.00    0.00    0.00    0.00    0.00     0.00    0.00    0.00    0.00
    5   25.70    4.15   11.57    0.04    0.14    0.00   92.39    4.55    5.74   15.77    0.63    0.00    0.02    0.00    0.00     1.09    0.00    0.13    0.00
    6    1.30    0.00    4.06    0.04    0.00    0.00   90.00    3.57    5.77    4.11    0.00    0.00    0.01    0.00    0.00     0.00    0.00    0.00    0.00
    7    0.00    0.00    1.40    0.04    0.00    0.00   87.75    2.24    5.76    1.44    0.00    0.00    0.00    0.00    0.00     0.00    0.00    0.00    0.00
    8    0.00    0.00    0.48    0.04    0.00    0.00   85.90    1.85    5.97    0.52    0.00    0.00    0.00    0.00    0.00     0.00    0.00    0.00    0.00
    9   70.90   32.99   16.98    0.04    0.28    0.00   94.23    3.66    4.27   50.00    3.83    0.00    0.02    0.01    0.00     7.00    0.00    0.85    0.00
   10   49.80   19.27   22.13    0.04    0.96    0.00   95.37    3.59    4.14   41.45    0.00    0.00    0.05    0.05    0.00     5.21    0.00    0.64    0.00
   11   53.10   21.96   24.76    0.04    1.33    0.00   96.90    2.15    2.17   46.76    3.40    0.00    0.06    0.08    0.00     4.86    0.00    0.59    0.00
   12   38.90   12.33   23.67    0.04    1.32    0.00   97.19    1.85    1.87   36.05    0.00    0.00    0.06    0.08    0.00     2.06    0.00    0.25    0.00
   13   15.00    0.83   15.80    0.04    0.64    0.00   97.16    1.88    1.90   16.68    0.03    0.00    0.04    0.04    0.00     0.06    0.00    0.01    0.00
   14   23.40    3.74   16.47    0.04    0.95    0.00   96.96    2.08    2.10   20.26    0.22    0.00    0.04    0.06    0.00     0.39    0.00    0.05    0.00
   15   17.50    1.51   14.32    0.04    0.73    0.00   96.63    2.42    2.44   15.87    0.00    0.00    0.04    0.04    0.00     0.25    0.00    0.03    0.00
   16    8.40    0.01    8.68    0.05    0.25    0.00   96.33    2.72    2.75    8.74    0.00    0.00    0.02    0.01    0.00     0.00    0.00    0.00    0.00
   17   32.30    8.20   16.31    0.05    1.07    0.00   96.19    2.85    2.94   24.56    0.55    0.00    0.04    0.06    0.00     0.85    0.00    0.10    0.00
   18    2.50    0.00    6.07    0.05    0.00    0.00   95.52    2.46    2.53    6.13    0.00    0.00    0.01    0.00    0.00     0.00    0.00    0.00    0.00
   19   10.70    0.09    6.63    0.05    0.17    0.00   96.85    2.19    2.22    6.77    0.01    0.00    0.01    0.01    0.00     0.01    0.00    0.00    0.00
   20    8.60    0.01    6.28    0.05    0.29    0.00   95.18    3.86    4.58    6.35    0.00    0.00    0.01    0.02    0.00     0.00    0.00    0.00    0.00
   21    1.80    0.00    2.40    0.05    0.00    0.00   93.40    3.21    4.44    2.46    0.00    0.00    0.00    0.00    0.00     0.00    0.00    0.00    0.00
   22    8.10    0.01    3.11    0.05    0.01    0.00   94.29    3.71    4.37    3.18    0.00    0.00    0.00    0.00    0.00     0.00    0.00    0.00    0.00
   23    0.00    0.00    1.07    0.05    0.00    0.00   92.13    2.16    4.17    1.13    0.00    0.00    0.00    0.00    0.00     0.00    0.00    0.00    0.00
   24    0.00    0.00    0.37    0.05    0.00    0.00   90.22    1.91    4.75    0.43    0.00    0.00    0.00    0.00    0.00     0.00    0.00    0.00    0.00
   25    6.60    0.00    1.81    0.06    0.00    0.00   90.74    3.52    5.38    1.87    0.00    0.00    0.00    0.00    0.00     0.00    0.00    0.00    0.00
   26    0.00    0.00    0.62    0.06    0.00    0.00   88.68    2.05    4.99    0.68    0.00    0.00    0.00    0.00    0.00     0.00    0.00    0.00    0.00
   27    8.40    0.01    2.48    0.06    0.00    0.00   90.15    3.47    5.01    2.55    0.00    0.00    0.00    0.00    0.00     0.00    0.00    0.00    0.00
   28   28.20    5.24   10.75    0.06    0.11    0.00   94.13    3.80    4.49   16.04    0.47    0.00    0.01    0.00    0.00     0.67    0.00    0.08    0.00
   29   70.90   35.59   22.86    0.06    1.18    0.00   96.00    3.05    3.25   58.49    2.58    0.00    0.04    0.06    0.00     4.35    0.00    0.53    0.00
   30    6.60    0.00   10.16    0.06    0.04    0.00   97.48    1.56    1.58   10.24    0.00    0.00    0.02    0.00    0.00     0.00    0.00    0.00    0.00
   31   38.10   11.91   18.77    0.06    1.35    0.00   97.94    1.11    1.12   30.74    1.32    0.00    0.05    0.08    0.00     1.63    0.00    0.20    0.00
    1  576.60  162.84  295.98    1.44   11.00    0.00   97.94   87.26  117.39  460.38   13.45    0.01    0.59    0.60    0.00    29.23    0.01    3.57    0.00
   32    2.50    0.00    7.33    0.06    0.05    0.00   96.06    2.99    3.16    7.40    0.00    0.00    0.02    0.00    0.00     0.00    0.00    0.00    0.00
   33    5.80    0.00    4.39    0.06    0.02    0.00   98.16    0.83    0.84    4.46    0.00    0.00    0.01    0.00    0.00     0.00    0.00    0.00    0.00
   34    8.90    0.02    6.49    0.06    0.41    0.00   95.60    3.45    3.90    6.57    0.00    0.00    0.01    0.02    0.00     0.00    0.00    0.00    0.00
   35   24.10    3.91   12.73    0.06    0.75    0.00   95.77    3.27    3.62   16.70    0.56    0.00    0.03    0.04    0.00     0.63    0.00    0.08    0.00
   36   21.30    2.76   13.95    0.06    0.68    0.00   96.62    2.42    2.45   16.78    0.00    0.00    0.03    0.04    0.00     0.31    0.00    0.04    0.00
   37    3.30    0.00    5.52    0.06    0.00    0.00   97.05    1.77    1.79    5.59    0.00    0.00    0.01    0.00    0.00     0.00    0.00    0.00    0.00
   38    7.90    0.01    5.60    0.06    0.26    0.00   95.23    3.82    4.20    5.68    0.00    0.00    0.01    0.01    0.01     0.00    0.00    0.00    0.00
   39   70.60   35.69   21.31    0.06    1.55    0.00   96.57    2.47    2.47   57.05    2.60    0.00    0.04    0.09    0.22     3.39    0.00    0.41    0.00
   40    0.30    0.00    7.33    0.07    0.00    0.00   94.41    2.47    3.56    7.41    0.00    0.00    0.01    0.00    0.34     0.00    0.00    0.00    0.00
   41    0.00    0.00    2.52    0.07    0.00    0.00   92.96    1.45    2.40    2.60    0.00    0.00    0.00    0.00    0.21     0.00    0.00    0.00    0.00
   42    0.00    0.00    0.87    0.07    0.00    0.00   91.36    1.60    2.92    0.94    0.00    0.00    0.00    0.00    0.29     0.00    0.00    0.00    0.00
   43    0.00    0.00    0.30    0.07    0.00    0.00   89.12    2.24    5.22    0.37    0.00    0.00    0.00    0.00    0.27     0.00    0.00    0.00    0.00
   44    0.00    0.00    0.10    0.07    0.00    0.00   86.96    2.16    4.78    0.18    0.00    0.00    0.00    0.00    0.52     0.00    0.00    0.00    0.00
   45    0.00    0.00    0.04    0.07    0.00    0.00   84.92    2.05    4.35    0.11    0.00    0.00    0.00    0.00    0.51     0.00    0.00    0.00    0.00
   46    0.00    0.00    0.01    0.07    0.00    0.00   83.02    1.90    3.94    0.09    0.00    0.00    0.00    0.00    0.40     0.00    0.00    0.00    0.00
   47    0.00    0.00    0.00    0.07    0.00    0.00   80.51    2.51    4.90    0.08    0.00    0.00    0.00    0.00    0.49     0.00    0.00    0.00    0.00
   48    0.00    0.00    0.00    0.07    0.00    0.00   78.81    1.69    2.55    0.08    0.00    0.00    0.00    0.00    0.34     0.00    0.00    0.00    0.00
   49    0.00    0.00    0.00    0.07    0.00    0.00   76.50    2.32    3.55    0.08    0.00    0.00    0.00    0.00    0.50     0.00    0.00    0.00    0.00
   50    0.00    0.00    0.00    0.07    0.00    0.00   74.27    2.23    3.75    0.07    0.00    0.00    0.00    0.00    0.25     0.00    0.00    0.00    0.00
   51    0.00    0.00    0.00    0.07    0.00    0.00   72.14    2.13    3.90    0.07    0.00    0.00    0.00    0.00    0.34     0.00    0.00    0.00    0.00
   52    0.00    0.00    0.00    0.07    0.00    0.00   69.36    2.78    4.82    0.07    0.00    0.00    0.00    0.00    0.35     0.00    0.00    0.00    0.00
   53    0.00    0.00    0.00    0.07    0.00    0.00   66.74    2.62    4.38    0.07    0.00    0.00    0.00    0.00    0.33     0.00    0.00    0.00    0.00
   54    0.00    0.00    0.00    0.07    0.00    0.00   63.90    2.85    4.91    0.07    0.00    0.00    0.00    0.00    0.28     0.00    0.00    0.00    0.00
   55    0.00    0.00    0.00    0.06    0.00    0.00   61.25    2.65    4.11    0.07    0.00    0.00    0.00    0.00    0.30     0.00    0.00    0.00    0.00
   56    0.00    0.00    0.00    0.06    0.00    0.00   58.26    2.98    5.16    0.07    0.00    0.00    0.00    0.00    0.17     0.00    0.00    0.00    0.00
   57    0.00    0.00    0.00    0.06    0.00    0.00   55.19    3.07    5.20    0.07    0.00    0.00    0.00    0.00    0.22     0.00    0.00    0.00    0.00
   58    0.00    0.00    0.00    0.06    0.00    0.00   52.55    2.65    4.79    0.07    0.00    0.00    0.00    0.00    0.14     0.00    0.00    0.00    0.00
   59    0.00    0.00    0.00    0.06    0.00    0.00   49.83    2.72    5.27    0.07    0.00    0.00    0.00    0.00    0.10     0.00    0.00    0.00    0.00
    2  144.70   42.37   88.49    1.82    3.71    0.00   49.83   68.07  106.88  132.88    3.16    0.00    0.18    0.21    6.60     4.32    0.00    0.53    0.00
   60    0.00    0.00    0.00    0.06    0.00    0.00   47.12    2.71    4.20    0.07    0.00    0.00    0.00    0.00    0.11     0.00    0.00    0.00    0.00
   61    0.00    0.00    0.00    0.06    0.00    0.00   44.55    2.57    3.85    0.07    0.00    0.00    0.00    0.00    0.03     0.00    0.00    0.00    0.00
   62    0.00    0.00    0.00    0.06    0.00    0.00   41.71    2.84    4.36    0.07    0.00    0.00    0.00    0.00    0.02     0.00    0.00    0.00    0.00
   63    0.00    0.00    0.00    0.06    0.00    0.00   39.25    2.47    3.41    0.07    0.00    0.00    0.00    0.00    0.05     0.00    0.00    0.00    0.00
   64    0.00    0.00    0.00    0.06    0.00    0.00   37.01    2.24    5.16    0.06    0.00    0.00    0.00    0.00    0.01     0.00    0.00    0.00    0.00
   65    0.00    0.00    0.00    0.06    0.00    0.00   35.65    1.36    3.46    0.06    0.00    0.00    0.00    0.00    0.09     0.00    0.00    0.00    0.00
   66    0.00    0.00    0.00    0.06    0.00    0.00   34.51    1.13    1.86    0.06    0.00    0.00    0.00    0.00    0.02     0.00    0.00    0.00    0.00
   67    0.00    0.00    0.00    0.05    0.00    0.00   33.68    0.84    1.12    0.06    0.00    0.00    0.00    0.00    0.01     0.00    0.00    0.00    0.00
   68    0.00    0.00    0.00    0.05    0.00    0.00   31.66    2.02    3.03    0.06    0.00    0.00    0.00    0.00    0.01     0.00    0.00    0.00    0.00
   69    0.00    0.00    0.00    0.05    0.00    0.00   29.25    2.41    4.38    0.06    0.00    0.00    0.00    0.00    0.01     0.00    0.00    0.00    0.00
   70    5.60    0.00    1.36    0.05    0.00    0.00   29.64    3.14    4.12    1.42    0.00    0.00    0.00    0.00    0.01     0.00    0.00    0.00    0.00
   71    0.00    0.00    0.47    0.05    0.00    0.00   26.98    2.65    4.32    0.53    0.00    0.00    0.00    0.00    0.02     0.00    0.00    0.00    0.00
   72    1.80    0.00    0.34    0.05    0.00    0.00   25.22    3.29    3.99    0.40    0.00    0.00    0.00    0.00    0.01     0.00    0.00    0.00    0.00
   73    0.00    0.00    0.12    0.05    0.00    0.00   22.85    2.37    3.77    0.17    0.00    0.00    0.00    0.00    0.01     0.00    0.00    0.00    0.00
   74    2.80    0.00    0.55    0.04    0.00    0.00   21.48    3.40    4.46    0.60    0.00    0.00    0.00    0.00    0.01     0.00    0.00    0.00    0.00
   75   14.20    0.00    4.33    0.04    0.00    0.00   25.44    3.92    4.56    4.38    0.00    0.00    0.00    0.00    0.06     0.00    0.00    0.00    0.00
   76    0.50    0.00    1.49    0.03    0.00    0.00   22.67    3.28    4.95    1.53    0.00    0.00    0.00    0.00    0.11     0.00    0.00    0.00    0.00
   77    0.00    0.00    0.51    0.03    0.00    0.00   20.11    2.56    3.51    0.55    0.00    0.00    0.00    0.00    0.13     0.00    0.00    0.00    0.00
   78    5.60    0.00    1.55    0.03    0.00    0.00   19.81    3.81    5.05    1.58    0.00    0.00    0.00    0.00    0.08     0.00    0.00    0.00    0.00
   79    6.40    0.00    2.20    0.03    0.00    0.00   20.58    3.10    3.72    2.24    0.00    0.00    0.00    0.00    0.13     0.00    0.00    0.00    0.00
   80   17.80    0.01    6.07    0.03    0.00    0.00   27.23    3.04    3.34    6.11    0.00    0.00    0.00    0.00    0.06     0.00    0.00    0.00    0.00
   81    2.00    0.00    2.41    0.03    0.00    0.00   25.03    3.70    4.37    2.45    0.00    0.00    0.00    0.00    0.07     0.00    0.00    0.00    0.00
   82   17.30    0.01    6.51    0.03    0.00    0.00   31.03    2.64    2.83    6.55    0.00    0.00    0.00    0.00    0.13     0.00    0.00    0.00    0.00
   83    0.00    0.00    2.24    0.03    0.00    0.00   28.93    2.10    2.72    2.27    0.00    0.00    0.00    0.00    0.06     0.00    0.00    0.00    0.00
   84    3.30    0.00    1.50    0.03    0.00    0.00   28.11    3.00    3.40    1.53    0.00    0.00    0.00    0.00    0.06     0.00    0.00    0.00    0.00
   85   11.70    0.00    4.45    0.03    0.00    0.00   29.39    4.42    4.73    4.49    0.00    0.00    0.00    0.00    0.07     0.00    0.00    0.00    0.00
   86    3.00    0.00    2.09    0.03    0.00    0.00   29.09    2.44    2.78    2.12    0.00    0.00    0.00    0.00    0.12     0.00    0.00    0.00    0.00
   87    1.00    0.00    0.77    0.02    0.00    0.00   27.10    2.92    3.44    0.80    0.00    0.00    0.00    0.00    0.06     0.00    0.00    0.00    0.00
   88    0.80    0.00    0.26    0.02    0.00    0.00   25.42    2.48    3.19    0.29    0.00    0.00    0.00    0.00    0.08     0.00    0.00    0.00    0.00
   89    0.00    0.00    0.09    0.02    0.00    0.00   23.32    2.09    2.99    0.12    0.00    0.00    0.00    0.00    0.08     0.00    0.00    0.00    0.00
   90    0.00    0.00    0.03    0.02    0.00    0.00   20.63    2.69    4.38    0.06    0.00    0.00    0.00    0.00    0.06     0.00    0.00    0.00    0.00
    3   93.80    0.02   39.34    1.26    0.00    0.00   20.63   83.62  115.48   40.83    0.00    0.00    0.00    0.00    1.76     0.00    0.00    0.00    0.00
   91    0.30    0.00    0.01    0.02    0.00    0.00   18.03    2.90    4.74    0.04    0.00    0.00    0.00    0.00    0.11     0.00    0.00    0.00    0.00
   92    0.30    0.00    0.00    0.02    0.00    0.00   16.93    1.40    3.41    0.03    0.00    0.00    0.00    0.00    0.12     0.00    0.00    0.00    0.00
   93    0.30    0.00    0.00    0.02    0.00    0.00   15.88    1.35    4.71    0.03    0.00    0.00    0.00    0.00    0.04     0.00    0.00    0.00    0.00
   94    2.50    0.00    0.43    0.02    0.00    0.00   15.64    2.08    4.20    0.45    0.00    0.00    0.00    0.00    0.04     0.00    0.00    0.00    0.00
   95    2.30    0.00    0.51    0.02    0.00    0.00   15.10    2.28    4.56    0.54    0.00    0.00    0.00    0.00    0.05     0.00    0.00    0.00    0.00
   96    4.30    0.00    1.15    0.01    0.00    0.00   14.77    3.16    5.22    1.17    0.00    0.00    0.00    0.00    0.05     0.00    0.00    0.00    0.00
   97    0.00    0.00    0.39    0.01    0.00    0.00   13.71    1.05    5.57    0.41    0.00    0.00    0.00    0.00    0.08     0.00    0.00    0.00    0.00
   98    0.00    0.00    0.14    0.01    0.00    0.00   12.98    0.74    4.32    0.15    0.00    0.00    0.00    0.00    0.03     0.00    0.00    0.00    0.00
   99    1.80    0.00    0.21    0.01    0.00    0.00   12.99    1.54    4.02    0.23    0.00    0.00    0.00    0.00    0.02     0.00    0.00    0.00    0.00
  100    0.00    0.00    0.07    0.01    0.00    0.00   12.24    0.75    4.44    0.09    0.00    0.00    0.00    0.00    0.03     0.00    0.00    0.00    0.00
  101   11.90    0.00    3.43    0.01    0.00    0.00   15.26    3.68    4.99    3.45    0.00    0.00    0.00    0.00    0.03     0.00    0.00    0.00    0.00
  102    1.80    0.00    1.38    0.01    0.00    0.00   14.03    2.72    3.71    1.40    0.00    0.00    0.00    0.00    0.09     0.00    0.00    0.00    0.00
  103    1.30    0.00    0.58    0.01    0.00    0.00   13.44    1.74    3.23    0.59    0.00    0.00    0.00    0.00    0.00     0.00    0.00    0.00    0.00
  104    2.80    0.00    0.83    0.01    0.00    0.00   13.64    1.65    2.73    0.84    0.00    0.00    0.00    0.00    0.00     0.00    0.00    0.00    0.00
  105    2.30    0.00    0.78    0.01    0.00    0.00   13.17    2.02    3.40    0.79    0.00    0.00    0.00    0.00    0.00     0.00    0.00    0.00    0.00
  106    0.00    0.00    0.27    0.01    0.00    0.00   12.78    0.39    1.46    0.28    0.00    0.00    0.00    0.00    0.00     0.00    0.00    0.00    0.00
  107    0.00    0.00    0.09    0.01    0.00    0.00   12.29    0.50    2.90    0.11    0.00    0.00    0.00    0.00    0.00     0.00    0.00    0.00    0.00
  108    0.00    0.00    0.03    0.01    0.00    0.00   12.06    0.23    1.18    0.05    0.00    0.00    0.00    0.00    0.00     0.00    0.00    0.00    0.00
  109    0.00    0.00    0.01    0.01    0.00    0.00   11.69    0.37    2.08    0.02    0.00    0.00    0.00    0.00    0.00     0.00    0.00    0.00    0.00
  110    0.30    0.00    0.00    0.01    0.00    0.00   11.56    0.43    2.25    0.02    0.00    0.00    0.00    0.00    0.00     0.00    0.00    0.00    0.00
  111    1.00    0.00    0.00    0.01    0.00    0.00   11.07    1.49    4.16    0.01    0.00    0.00    0.00    0.00    0.00     0.00    0.00    0.00    0.00
  112    1.30    0.00    0.05    0.00    0.00    0.00   11.04    1.25    3.43    0.06    0.00    0.00    0.00    0.00    0.00     0.00    0.00    0.00    0.00
  113   98.00   14.79   35.12    0.00    0.01    0.00   37.52    3.24    3.28   49.89    0.01    0.00    0.01    0.00    0.00     0.02    0.00    0.00    0.00
  114    0.80    0.00   12.07    0.00    0.00    0.00   36.65    1.67    1.88   12.09    0.00    0.00    0.00    0.00    0.00     0.00    0.00    0.00    0.00
  115    0.00    0.00    4.15    0.00    0.00    0.00   33.07    3.58    5.04    4.16    0.00    0.00    0.00    0.00    0.00     0.00    0.00    0.00    0.00
  116    0.50    0.00    1.43    0.00    0.00    0.00   30.49    3.08    4.80    1.44    0.00    0.00    0.00    0.00    0.00     0.00    0.00    0.00    0.00
  117    7.10    0.00    2.39    0.00    0.00    0.00   30.87    3.83    5.04    2.40    0.00    0.00    0.00    0.00    0.00     0.00    0.00    0.00    0.00
  118   24.90    0.05   10.10    0.00    0.03    0.00   38.72    2.85    4.24   10.15    0.00    0.00    0.00    0.00    0.00     0.00    0.00    0.00    0.00
  119    3.80    0.00    4.34    0.00    0.00    0.00   38.20    2.98    4.00    4.35    0.00    0.00    0.00    0.00    0.00     0.00    0.00    0.00    0.00
  120   69.30   14.55   28.91    0.00    0.12    0.00   48.22    2.83    3.39   43.45    0.01    0.00    0.02    0.00    0.00     0.01    0.00    0.00    0.00
    4  238.90   29.39  108.86    0.28    0.16    0.00   48.22   57.78  112.40  138.69    0.02    0.00    0.03    0.00    0.73     0.04    0.00    0.00    0.00
  121    4.60    0.00   11.16    0.00    0.01    0.00   48.39    2.56    2.89   11.18    0.00    0.00    0.01    0.00    0.00     0.00    0.00    0.00    0.00
  122    4.60    0.00    5.14    0.00    0.01    0.00   48.30    2.68    3.12    5.16    0.00    0.00    0.00    0.00    0.00     0.00    0.00    0.00    0.00
  123    4.60    0.00    3.04    0.00    0.01    0.00   48.11    2.85    3.42    3.05    0.00    0.00    0.00    0.00    0.00     0.00    0.00    0.00    0.00
  124    0.00    0.00    1.05    0.00    0.00    0.00   46.18    1.93    3.91    1.06    0.00    0.00    0.00    0.00    0.00     0.00    0.00    0.00    0.00
  125    0.00    0.00    0.36    0.00    0.00    0.00   44.29    1.89    4.99    0.37    0.00    0.00    0.00    0.00    0.00     0.00    0.00    0.00    0.00
  126    1.00    0.00    0.12    0.00    0.00    0.00   42.57    2.73    6.19    0.13    0.00    0.00    0.00    0.00    0.00     0.00    0.00    0.00    0.00
  127    2.00    0.00    0.33    0.00    0.00    0.00   41.61    2.53    5.43    0.34    0.00    0.00    0.00    0.00    0.00     0.00    0.00    0.00    0.00
  128    1.00    0.00    0.11    0.00    0.00    0.00   40.60    2.00    4.08    0.12    0.00    0.00    0.00    0.00    0.00     0.00    0.00    0.00    0.00
  129    0.00    0.00    0.04    0.00    0.00    0.00   39.28    1.32    4.94    0.05    0.00    0.00    0.00    0.00    0.00     0.00    0.00    0.00    0.00
  130    9.70    0.00    2.69    0.00    0.00    0.00   42.10    2.79    5.23    2.70    0.00    0.00    0.00    0.00    0.00     0.00    0.00    0.00    0.00
  131   33.50    1.56   15.19    0.00    0.07    0.00   50.33    1.91    2.08   16.75    0.00    0.00    0.02    0.00    0.00     0.00    0.00    0.00    0.00
  132    7.90    0.00    8.66    0.00    0.03    0.00   50.42    2.53    2.81    8.68    0.00    0.00    0.01    0.00    0.00     0.00    0.00    0.00    0.00
  133    1.80    0.00    3.22    0.01    0.00    0.00   49.21    2.64    3.35    3.23    0.00    0.00    0.00    0.00    0.00     0.00    0.00    0.00    0.00
  134    5.60    0.00    2.60    0.01    0.01    0.00   49.31    3.22    4.08    2.61    0.00    0.00    0.00    0.00    0.00     0.00    0.00    0.00    0.00
  135    0.50    0.00    0.89    0.01    0.00    0.00   47.42    2.39    4.29    0.90    0.00    0.00    0.00    0.00    0.00     0.00    0.00    0.00    0.00
  136    1.80    0.00    0.51    0.01    0.00    0.00   46.21    2.69    4.55    0.52    0.00    0.00    0.00    0.00    0.00     0.00    0.00    0.00    0.00
  137    0.00    0.00    0.18    0.01    0.00    0.00   44.60    1.61    4.55    0.19    0.00    0.00    0.00    0.00    0.00     0.00    0.00    0.00    0.00
  138    6.90    0.00    1.85    0.01    0.00    0.00   45.80    2.97    5.00    1.86    0.00    0.00    0.00    0.00    0.00     0.00    0.00    0.00    0.00
  139   11.90    0.00    4.58    0.01    0.02    0.00   48.55    3.12    3.93    4.59    0.00    0.00    0.00    0.00    0.00     0.00    0.00    0.00    0.00
  140    0.50    0.00    1.57    0.01    0.00    0.00   46.55    2.50    4.54    1.58    0.00    0.00    0.00    0.00    0.00     0.00    0.00    0.00    0.00
  141    0.00    0.00    0.54    0.01    0.00    0.00   44.62    1.92    5.22    0.55    0.00    0.00    0.00    0.00    0.00     0.00    0.00    0.00    0.00
  142    0.00    0.00    0.19    0.01    0.00    0.00   43.26    1.36    4.55    0.20    0.00    0.00    0.00    0.00    0.00     0.00    0.00    0.00    0.00
  143    5.60    0.00    1.43    0.01    0.00    0.00   44.34    2.44    4.28    1.44    0.00    0.00    0.00    0.00    0.00     0.00    0.00    0.00    0.00
  144    4.60    0.00    1.62    0.01    0.00    0.00   44.55    2.66    4.57    1.63    0.00    0.00    0.00    0.00    0.00     0.00    0.00    0.00    0.00
  145    0.00    0.00    0.56    0.01    0.00    0.00   42.73    1.82    5.39    0.57    0.00    0.00    0.00    0.00    0.00     0.00    0.00    0.00    0.00
  146    6.10    0.00    1.73    0.01    0.00    0.00   43.74    2.75    4.89    1.74    0.00    0.00    0.00    0.00    0.00     0.00    0.00    0.00    0.00
  147    1.30    0.00    0.68    0.01    0.00    0.00   42.62    2.30    4.25    0.69    0.00    0.00    0.00    0.00    0.00     0.00    0.00    0.00    0.00
  148    4.10    0.00    1.20    0.01    0.00    0.00   42.75    2.49    4.56    1.21    0.00    0.00    0.00    0.00    0.00     0.00    0.00    0.00    0.00
  149    0.80    0.00    0.41    0.01    0.00    0.00   41.31    2.24    5.15    0.42    0.00    0.00    0.00    0.00    0.00     0.00    0.00    0.00    0.00
  150   13.50    0.00    4.23    0.01    0.01    0.00   45.43    3.14    4.14    4.24    0.00    0.00    0.00    0.00    0.00     0.00    0.00    0.00    0.00
  151    0.80    0.00    1.45    0.01    0.00    0.00   44.13    2.10    3.19    1.46    0.00    0.00    0.00    0.00    0.00     0.00    0.00    0.00    0.00
    5  134.70    1.57   77.34    0.16    0.15    0.00   44.13   74.11  133.57   79.25    0.00    0.00    0.08    0.00    0.04     0.00    0.00    0.00    0.00
  152    1.80    0.00    0.73    0.01    0.00    0.00   43.29    2.29    3.46    0.74    0.00    0.00    0.00    0.00    0.00     0.00    0.00    0.00    0.00
  153    1.80    0.00    0.49    0.01    0.00    0.00   42.56    2.17    3.39    0.50    0.00    0.00    0.00    0.00    0.00     0.00    0.00    0.00    0.00
  154    0.00    0.00    0.17    0.01    0.00    0.00   41.08    1.47    4.37    0.18    0.00    0.00    0.00    0.00    0.00     0.00    0.00    0.00    0.00
  155    9.40    0.00    2.64    0.01    0.00    0.00   43.75    2.79    3.99    2.65    0.00    0.00    0.00    0.00    0.00     0.00    0.00    0.00    0.00
  156  174.20   94.15   42.58    0.01    0.21    0.00   57.55    2.55    2.78  136.66    0.23    0.01    0.11    0.00    0.00     0.39    0.00    0.05    0.00
  157    0.30    0.00   14.63    0.01    0.00    0.00   56.45    1.40    2.44   14.68    0.00    0.00    0.04    0.00    0.00     0.00    0.00    0.00    0.00
  158    1.80    0.00    5.28    0.01    0.00    0.00   56.26    1.61    1.80    5.30    0.00    0.00    0.01    0.00    0.00     0.00    0.00    0.00    0.00
  159    0.30    0.00    1.81    0.01    0.00    0.00   54.97    1.59    2.80    1.83    0.00    0.00    0.00    0.00    0.00     0.00    0.00    0.00    0.00
  160   11.70    0.00    4.84    0.01    0.03    0.00   57.66    2.56    2.79    4.86    0.00    0.00    0.01    0.00    0.00     0.00    0.00    0.00    0.00
  161    5.30    0.00    3.38    0.01    0.01    0.00   57.79    2.54    2.75    3.39    0.00    0.00    0.00    0.00    0.00     0.00    0.00    0.00    0.00
  162    0.30    0.00    1.16    0.01    0.00    0.00   56.77    1.31    2.27    1.17    0.00    0.00    0.00    0.00    0.00     0.00    0.00    0.00    0.00
  163    0.80    0.00    0.40    0.01    0.00    0.00   55.57    2.01    2.73    0.41    0.00    0.00    0.00    0.00    0.00     0.00    0.00    0.00    0.00
  164   10.70    0.00    3.93    0.01    0.03    0.00   57.98    2.49    2.66    3.94    0.00    0.00    0.00    0.00    0.00     0.00    0.00    0.00    0.00
  165    0.80    0.00    1.35    0.01    0.00    0.00   56.27    2.50    3.63    1.36    0.00    0.00    0.00    0.00    0.00     0.00    0.00    0.00    0.00
  166    1.80    0.00    0.69    0.01    0.00    0.00   55.41    2.32    3.19    0.70    0.00    0.00    0.00    0.00    0.00     0.00    0.00    0.00    0.00
  167   30.50    2.18   13.83    0.01    0.10    0.00   60.41    2.50    2.69   16.02    0.00    0.00    0.03    0.00    0.00     0.01    0.00    0.00    0.00
  168    0.80    0.00    4.75    0.01    0.00    0.00   58.73    2.48    3.55    4.77    0.00    0.00    0.01    0.00    0.00     0.00    0.00    0.00    0.00
  169    1.50    0.00    1.76    0.01    0.00    0.00   57.97    2.06    2.57    1.78    0.00    0.00    0.00    0.00    0.00     0.00    0.00    0.00    0.00
  170    0.50    0.00    0.61    0.01    0.00    0.00   57.26    1.22    2.33    0.62    0.00    0.00    0.00    0.00    0.00     0.00    0.00    0.00    0.00
  171    0.30    0.00    0.21    0.01    0.00    0.00   56.35    1.20    2.57    0.22    0.00    0.00    0.00    0.00    0.00     0.00    0.00    0.00    0.00
  172    0.00    0.00    0.07    0.01    0.00    0.00   54.98    1.37    3.72    0.08    0.00    0.00    0.00    0.00    0.00     0.00    0.00    0.00    0.00
  173    4.10    0.00    0.93    0.01    0.00    0.00   55.20    2.49    4.48    0.95    0.00    0.00    0.00    0.00    0.00     0.00    0.00    0.00    0.00
  174    6.10    0.00    1.93    0.01    0.00    0.00   56.28    2.58    3.94    1.94    0.00    0.00    0.00    0.00    0.00     0.00    0.00    0.00    0.00
  175    8.90    0.00    3.28    0.01    0.02    0.00   58.64    2.53    2.79    3.29    0.00    0.00    0.00    0.00    0.00     0.00    0.00    0.00    0.00
  176   17.30    0.08    9.11    0.01    0.07    0.00   61.67    1.95    2.08    9.20    0.00    0.00    0.02    0.00    0.00     0.00    0.00    0.00    0.00
  177    0.00    0.00    3.13    0.01    0.00    0.00   60.25    1.42    2.56    3.14    0.00    0.00    0.01    0.00    0.00     0.00    0.00    0.00    0.00
  178    0.00    0.00    1.08    0.01    0.00    0.00   59.57    0.69    1.45    1.09    0.00    0.00    0.00    0.00    0.00     0.00    0.00    0.00    0.00
  179    3.00    0.00    0.93    0.01    0.00    0.00   59.12    2.59    3.50    0.94    0.00    0.00    0.00    0.00    0.00     0.00    0.00    0.00    0.00
  180    0.30    0.00    0.32    0.01    0.00    0.00   57.97    1.45    2.97    0.33    0.00    0.00    0.00    0.00    0.00     0.00    0.00    0.00    0.00
  181    4.80    0.00    1.29    0.01    0.00    0.00   59.03    1.94    2.16    1.30    0.00    0.00    0.00    0.00    0.00     0.00    0.00    0.00    0.00
    6  299.10   96.41  127.31    0.23    0.48    0.00   59.03   60.08   88.43  224.06    0.23    0.01    0.26    0.00    0.00     0.40    0.00    0.05    0.00
  182    2.30    0.00    0.85    0.01    0.00    0.00   58.06    2.65    3.81    0.86    0.00    0.00    0.00    0.00    0.00     0.00    0.00    0.00    0.00
  183   14.00    0.01    5.69    0.01    0.05    0.00   60.85    2.93    3.43    5.71    0.00    0.00    0.01    0.00    0.00     0.00    0.00    0.00    0.00
  184    6.90    0.00    4.41    0.01    0.02    0.00   60.26    3.73    4.88    4.43    0.00    0.00    0.01    0.00    0.00     0.00    0.00    0.00    0.00
  185    0.00    0.00    1.52    0.01    0.00    0.00   58.31    1.95    4.30    1.53    0.00    0.00    0.00    0.00    0.00     0.00    0.00    0.00    0.00
  186    7.60    0.00    2.54    0.01    0.01    0.00   59.88    2.95    3.69    2.55    0.00    0.00    0.00    0.00    0.00     0.00    0.00    0.00    0.00
  187    1.50    0.00    1.02    0.01    0.00    0.00   58.46    2.70    3.87    1.03    0.00    0.00    0.00    0.00    0.00     0.00    0.00    0.00    0.00
  188    5.10    0.00    1.64    0.01    0.00    0.00   60.52    1.08    1.15    1.65    0.00    0.00    0.00    0.00    0.00     0.00    0.00    0.00    0.00
  189    0.30    0.00    0.56    0.01    0.00    0.00   59.45    1.37    1.85    0.58    0.00    0.00    0.00    0.00    0.00     0.00    0.00    0.00    0.00
  190    0.00    0.00    0.19    0.01    0.00    0.00   58.31    1.15    2.26    0.21    0.00    0.00    0.00    0.00    0.00     0.00    0.00    0.00    0.00
  191    2.80    0.00    0.63    0.01    0.00    0.00   58.22    2.03    2.39    0.64    0.00    0.00    0.00    0.00    0.00     0.00    0.00    0.00    0.00
  192    0.30    0.00    0.22    0.01    0.00    0.00   57.42    1.10    2.26    0.23    0.00    0.00    0.00    0.00    0.00     0.00    0.00    0.00    0.00
  193   14.70    0.01    5.58    0.01    0.05    0.00   61.65    2.03    2.14    5.60    0.00    0.00    0.01    0.00    0.00     0.00    0.00    0.00    0.00
  194   24.40    1.18   13.92    0.01    0.11    0.00   64.91    1.55    1.63   15.11    0.00    0.00    0.04    0.00    0.00     0.00    0.00    0.00    0.00
  195    2.00    0.00    5.17    0.01    0.00    0.00   64.44    1.88    1.98    5.19    0.00    0.00    0.01    0.00    0.00     0.00    0.00    0.00    0.00
  196    9.40    0.00    6.03    0.01    0.04    0.00   64.77    2.55    2.72    6.04    0.00    0.00    0.02    0.00    0.00     0.00    0.00    0.00    0.00
  197    5.10    0.00    3.68    0.01    0.01    0.00   64.45    2.94    3.42    3.70    0.00    0.00    0.01    0.00    0.00     0.00    0.00    0.00    0.00
  198   31.80    3.63   15.71    0.01    0.12    0.00   67.09    3.39    4.21   19.35    0.01    0.00    0.04    0.00    0.00     0.01    0.00    0.00    0.00
  199   10.40    0.00    9.63    0.01    0.04    0.00   68.04    2.97    3.46    9.65    0.00    0.00    0.02    0.00    0.00     0.00    0.00    0.00    0.00
  200   33.50    4.76   18.07    0.01    0.13    0.00   70.93    3.23    3.90   22.84    0.02    0.00    0.03    0.00    0.00     0.04    0.00    0.00    0.00
  201   27.40    2.80   18.52    0.01    0.11    0.00   74.18    2.48    2.60   21.34    0.00    0.00    0.03    0.00    0.00     0.02    0.00    0.00    0.00
  202    0.00    0.00    6.37    0.01    0.00    0.00   73.32    0.86    1.58    6.39    0.00    0.00    0.01    0.00    0.00     0.00    0.00    0.00    0.00
  203    0.00    0.00    2.19    0.01    0.00    0.00   72.17    1.14    2.30    2.21    0.00    0.00    0.00    0.00    0.00     0.00    0.00    0.00    0.00
  204    0.00    0.00    0.75    0.01    0.00    0.00   70.82    1.35    3.31    0.77    0.00    0.00    0.00    0.00    0.00     0.00    0.00    0.00    0.00
  205   13.70    0.04    5.25    0.01    0.04    0.00   73.05    3.79    4.87    5.31    0.00    0.00    0.00    0.00    0.00     0.00    0.00    0.00    0.00
  206    0.00    0.00    1.81    0.01    0.00    0.00   70.45    2.60    5.70    1.82    0.00    0.00    0.00    0.00    0.00     0.00    0.00    0.00    0.00
  207    0.00    0.00    0.62    0.01    0.00    0.00   68.81    1.65    4.85    0.64    0.00    0.00    0.00    0.00    0.00     0.00    0.00    0.00    0.00
  208   23.40    1.43    8.97    0.01    0.06    0.00   73.69    3.68    4.66   10.42    0.00    0.00    0.01    0.00    0.00     0.01    0.00    0.00    0.00
  209    4.10    0.00    4.05    0.02    0.00    0.00   73.11    3.21    4.17    4.07    0.00    0.00    0.00    0.00    0.00     0.00    0.00    0.00    0.00
  210    4.80    0.00    2.59    0.02    0.01    0.00   72.93    3.15    4.01    2.60    0.00    0.00    0.00    0.00    0.00     0.00    0.00    0.00    0.00
  211    0.50    0.00    0.89    0.02    0.00    0.00   71.20    2.23    3.86    0.91    0.00    0.00    0.00    0.00    0.00     0.00    0.00    0.00    0.00
  212    2.80    0.00    0.83    0.02    0.00    0.00   70.75    2.45    3.57    0.85    0.00    0.00    0.00    0.00    0.00     0.00    0.00    0.00    0.00
    7  248.80   13.86  149.90    0.36    0.80    0.00   70.75   72.76  102.85  164.21    0.03    0.00    0.27    0.01    0.01     0.08    0.00    0.01    0.00
  213    9.70    0.00    3.25    0.02    0.02    0.00   73.32    2.60    2.79    3.27    0.00    0.00    0.00    0.00    0.00     0.00    0.00    0.00    0.00
  214    0.30    0.00    1.12    0.02    0.00    0.00   72.03    1.59    2.72    1.13    0.00    0.00    0.00    0.00    0.00     0.00    0.00    0.00    0.00
  215   21.10    1.08    9.50    0.02    0.08    0.00   76.15    1.92    2.01   10.60    0.01    0.00    0.01    0.00    0.00     0.01    0.00    0.00    0.00
  216   14.00    0.11   10.09    0.02    0.07    0.00   76.35    3.22    3.81   10.22    0.00    0.00    0.02    0.00    0.00     0.00    0.00    0.00    0.00
  217   16.50    0.40   11.02    0.02    0.08    0.00   77.75    3.12    3.64   11.43    0.00    0.00    0.02    0.00    0.00     0.00    0.00    0.00    0.00
  218    4.80    0.00    5.04    0.02    0.01    0.00   77.36    3.27    3.91    5.06    0.00    0.00    0.01    0.00    0.00     0.00    0.00    0.00    0.00
  219    0.00    0.00    1.73    0.02    0.00    0.00   74.70    2.66    5.46    1.75    0.00    0.00    0.00    0.00    0.00     0.00    0.00    0.00    0.00
  220    0.50    0.00    0.60    0.02    0.00    0.00   72.56    2.65    6.26    0.62    0.00    0.00    0.00    0.00    0.00     0.00    0.00    0.00    0.00
  221    7.10    0.00    2.08    0.02    0.00    0.00   73.59    3.21    5.24    2.10    0.00    0.00    0.00    0.00    0.00     0.00    0.00    0.00    0.00
  222   74.70   31.57   22.08    0.02    0.30    0.00   81.22    2.65    2.79   53.64    0.19    0.00    0.03    0.00    0.00     0.32    0.00    0.04    0.00
  223    0.00    0.00    7.59    0.02    0.00    0.00   79.19    2.03    3.76    7.62    0.00    0.00    0.01    0.00    0.00     0.00    0.00    0.00    0.00
  224    0.30    0.00    2.61    0.02    0.00    0.00   78.09    1.40    2.90    2.63    0.00    0.00    0.00    0.00    0.00     0.00    0.00    0.00    0.00
  225    0.00    0.00    0.90    0.02    0.00    0.00   76.65    1.44    3.70    0.92    0.00    0.00    0.00    0.00    0.00     0.00    0.00    0.00    0.00
  226    0.00    0.00    0.31    0.02    0.00    0.00   75.13    1.52    4.65    0.33    0.00    0.00    0.00    0.00    0.00     0.00    0.00    0.00    0.00
  227   30.00    4.24   10.80    0.02    0.11    0.00   80.44    4.05    5.20   15.05    0.03    0.00    0.01    0.00    0.00     0.05    0.00    0.01    0.00
  228  103.10   57.47   27.69    0.02    0.45    0.00   85.93    3.15    3.60   85.15    0.79    0.00    0.04    0.01    0.00     1.37    0.00    0.17    0.00
  229   88.60   47.45   31.61    0.02    0.58    0.00   91.22    1.61    1.67   79.07    0.00    0.00    0.04    0.01    0.00     0.44    0.00    0.05    0.00
  230    8.10    0.00   14.70    0.02    0.16    0.00   91.59    1.72    1.78   14.76    0.00    0.00    0.02    0.00    0.00     0.00    0.00    0.00    0.00
  231   37.60   10.58   19.88    0.02    0.71    0.00   93.62    1.69    1.75   30.49    0.04    0.00    0.02    0.01    0.00     0.07    0.00    0.01    0.00
  232    0.50    0.00    6.83    0.02    0.00    0.00   93.00    1.11    1.42    6.87    0.00    0.00    0.01    0.00    0.00     0.00    0.00    0.00    0.00
  233   13.00    0.31    8.56    0.02    0.25    0.00   93.42    2.55    2.64    8.90    0.00    0.00    0.01    0.00    0.00     0.01    0.00    0.00    0.00
  234    0.00    0.00    2.94    0.02    0.00    0.00   90.46    2.96    5.41    2.97    0.00    0.00    0.00    0.00    0.00     0.00    0.00    0.00    0.00
  235    0.00    0.00    1.01    0.02    0.00    0.00   88.70    1.76    4.36    1.04    0.00    0.00    0.00    0.00    0.00     0.00    0.00    0.00    0.00
  236    1.30    0.00    0.35    0.03    0.00    0.00   87.76    2.23    3.47    0.38    0.00    0.00    0.00    0.00    0.00     0.00    0.00    0.00    0.00
  237    0.80    0.00    0.12    0.03    0.00    0.00   86.58    1.99    3.63    0.15    0.00    0.00    0.00    0.00    0.00     0.00    0.00    0.00    0.00
  238   30.20    5.76    9.86    0.03    0.12    0.00   92.90    3.03    3.33   15.65    0.04    0.00    0.01    0.00    0.00     0.07    0.00    0.01    0.00
  239    0.50    0.00    3.39    0.03    0.00    0.00   90.92    2.47    3.81    3.42    0.00    0.00    0.00    0.00    0.00     0.00    0.00    0.00    0.00
  240    0.00    0.00    1.17    0.03    0.00    0.00   89.15    1.77    4.00    1.20    0.00    0.00    0.00    0.00    0.00     0.00    0.00    0.00    0.00
  241    0.00    0.00    0.40    0.03    0.00    0.00   87.72    1.43    3.92    0.43    0.00    0.00    0.00    0.00    0.00     0.00    0.00    0.00    0.00
  242    0.00    0.00    0.14    0.03    0.00    0.00   86.01    1.70    5.27    0.17    0.00    0.00    0.00    0.00    0.00     0.00    0.00    0.00    0.00
  243    5.10    0.00    1.25    0.03    0.00    0.00   86.98    2.29    3.58    1.29    0.00    0.00    0.00    0.00    0.00     0.00    0.00    0.00    0.00
    8  467.80  158.96  218.63    0.66    2.94    0.00   86.98   70.82  112.47  378.33    1.11    0.01    0.27    0.04    0.00     2.34    0.01    0.29    0.00
  244   44.70   14.19   14.17    0.03    0.29    0.00   93.38    2.89    3.08   28.38    0.15    0.00    0.01    0.00    0.00     0.23    0.00    0.03    0.00
  245    2.80    0.00    5.43    0.03    0.00    0.00   92.82    2.51    2.65    5.47    0.00    0.00    0.01    0.00    0.00     0.00    0.00    0.00    0.00
  246    1.30    0.00    1.95    0.03    0.00    0.00   92.32    1.68    1.73    1.98    0.00    0.00    0.00    0.00    0.00     0.00    0.00    0.00    0.00
  247    0.00    0.00    0.67    0.03    0.00    0.00   90.42    1.90    3.45    0.71    0.00    0.00    0.00    0.00    0.00     0.00    0.00    0.00    0.00
  248    0.00    0.00    0.23    0.03    0.00    0.00   88.64    1.78    4.25    0.27    0.00    0.00    0.00    0.00    0.00     0.00    0.00    0.00    0.00
  249    0.00    0.00    0.08    0.03    0.00    0.00   87.03    1.61    4.64    0.11    0.00    0.00    0.00    0.00    0.00     0.00    0.00    0.00    0.00
  250   25.10    3.52    8.32    0.03    0.08    0.00   91.59    4.31    5.45   11.87    0.03    0.00    0.01    0.00    0.00     0.05    0.00    0.01    0.00
  251   12.70    0.24    7.95    0.03    0.09    0.00   93.17    3.03    3.31    8.22    0.00    0.00    0.01    0.00    0.00     0.00    0.00    0.00    0.00
  252    7.40    0.00    5.51    0.03    0.06    0.00   93.38    2.90    3.10    5.54    0.00    0.00    0.01    0.00    0.00     0.00    0.00    0.00    0.00
  253    3.60    0.00    2.71    0.03    0.00    0.00   92.06    3.68    4.50    2.74    0.00    0.00    0.00    0.00    0.00     0.00    0.00    0.00    0.00
  254    0.30    0.00    0.93    0.03    0.00    0.00   89.14    3.22    6.15    0.97    0.00    0.00    0.00    0.00    0.00     0.00    0.00    0.00    0.00
  255    1.30    0.00    0.36    0.03    0.00    0.00   86.91    3.47    6.82    0.39    0.00    0.00    0.00    0.00    0.00     0.00    0.00    0.00    0.00
  256    8.40    0.00    2.46    0.03    0.00    0.00   88.04    3.72    5.94    2.49    0.00    0.00    0.00    0.00    0.00     0.00    0.00    0.00    0.00
  257    0.30    0.00    0.84    0.03    0.00    0.00   86.08    2.26    5.11    0.88    0.00    0.00    0.00    0.00    0.00     0.00    0.00    0.00    0.00
  258    2.30    0.00    0.64    0.03    0.00    0.00   85.18    2.66    4.98    0.68    0.00    0.00    0.00    0.00    0.00     0.00    0.00    0.00    0.00
  259    3.30    0.00    0.94    0.03    0.00    0.00   84.59    2.79    5.39    0.97    0.00    0.00    0.00    0.00    0.00     0.00    0.00    0.00    0.00
  260    5.60    0.00    1.77    0.03    0.00    0.00   85.64    2.35    3.56    1.80    0.00    0.00    0.00    0.00    0.00     0.00    0.00    0.00    0.00
  261   16.50    0.72    6.22    0.03    0.04    0.00   88.92    3.91    4.88    6.97    0.01    0.00    0.00    0.00    0.00     0.01    0.00    0.00    0.00
  262    0.30    0.00    2.14    0.03    0.00    0.00   86.87    2.36    4.37    2.17    0.00    0.00    0.00    0.00    0.00     0.00    0.00    0.00    0.00
  263    0.30    0.00    0.73    0.03    0.00    0.00   84.49    2.68    6.41    0.77    0.00    0.00    0.00    0.00    0.00     0.00    0.00    0.00    0.00
  264   14.70    0.36    4.81    0.03    0.02    0.00   88.28    3.58    4.34    5.20    0.01    0.00    0.00    0.00    0.00     0.01    0.00    0.00    0.00
  265    1.50    0.00    1.80    0.03    0.00    0.00   86.43    3.13    4.54    1.83    0.00    0.00    0.00    0.00    0.00     0.00    0.00    0.00    0.00
  266    0.30    0.00    0.62    0.03    0.00    0.00   83.68    3.05    6.90    0.65    0.00    0.00    0.00    0.00    0.00     0.00    0.00    0.00    0.00
  267    0.00    0.00    0.21    0.03    0.00    0.00   81.52    2.16    6.87    0.25    0.00    0.00    0.00    0.00    0.00     0.00    0.00    0.00    0.00
  268    0.50    0.00    0.07    0.03    0.00    0.00   79.75    2.27    7.17    0.11    0.00    0.00    0.00    0.00    0.00     0.00    0.00    0.00    0.00
  269    0.00    0.00    0.03    0.03    0.00    0.00   77.96    1.79    7.48    0.06    0.00    0.00    0.00    0.00    0.00     0.00    0.00    0.00    0.00
  270    0.00    0.00    0.01    0.03    0.00    0.00   76.30    1.66    8.03    0.04    0.00    0.00    0.00    0.00    0.00     0.00    0.00    0.00    0.00
  271   10.90    0.00    3.05    0.03    0.00    0.00   79.71    2.85    5.91    3.08    0.00    0.00    0.00    0.00    0.00     0.00    0.00    0.00    0.00
  272    0.30    0.00    1.05    0.03    0.00    0.00   78.50    1.51    4.02    1.08    0.00    0.00    0.00    0.00    0.00     0.00    0.00    0.00    0.00
  273    2.30    0.00    0.71    0.03    0.00    0.00   77.88    2.38    5.21    0.74    0.00    0.00    0.00    0.00    0.00     0.00    0.00    0.00    0.00
    9  166.70   19.03   76.39    0.94    0.58    0.00   77.88   80.10  150.23   96.44    0.19    0.00    0.06    0.01    0.00     0.31    0.00    0.04    0.00
  274    0.00    0.00    0.24    0.03    0.00    0.00   76.47    1.42    5.18    0.28    0.00    0.00    0.00    0.00    0.00     0.00    0.00    0.00    0.00
  275    7.10    0.00    1.94    0.03    0.00    0.00   78.59    2.15    3.74    1.97    0.00    0.00    0.00    0.00    0.00     0.00    0.00    0.00    0.00
  276    0.50    0.00    0.67    0.03    0.00    0.00   77.27    1.82    4.51    0.70    0.00    0.00    0.00    0.00    0.00     0.00    0.00    0.00    0.00
  277    0.00    0.00    0.23    0.03    0.00    0.00   75.68    1.58    5.98    0.26    0.00    0.00    0.00    0.00    0.00     0.00    0.00    0.00    0.00
  278    0.50    0.00    0.08    0.03    0.00    0.00   74.50    1.68    5.73    0.11    0.00    0.00    0.00    0.00    0.00     0.00    0.00    0.00    0.00
  279    1.50    0.00    0.12    0.03    0.00    0.00   74.03    1.82    3.84    0.15    0.00    0.00    0.00    0.00    0.00     0.00    0.00    0.00    0.00
  280    2.50    0.00    0.51    0.03    0.00    0.00   73.88    1.94    4.35    0.53    0.00    0.00    0.00    0.00    0.00     0.00    0.00    0.00    0.00
  281    0.30    0.00    0.17    0.02    0.00    0.00   73.18    1.00    3.20    0.20    0.00    0.00    0.00    0.00    0.00     0.00    0.00    0.00    0.00
  282    0.50    0.00    0.06    0.02    0.00    0.00   72.30    1.38    4.46    0.09    0.00    0.00    0.00    0.00    0.00     0.00    0.00    0.00    0.00
  283   72.40   29.49   17.10    0.02    0.10    0.00   85.47    3.62    4.37   46.59    0.41    0.00    0.02    0.00    0.00     0.64    0.00    0.08    0.00
  284    9.90    0.00    9.57    0.02    0.03    0.00   85.95    3.75    4.57    9.62    0.00    0.00    0.01    0.00    0.00     0.00    0.00    0.00    0.00
  285    0.30    0.00    3.29    0.02    0.00    0.00   83.86    2.39    4.34    3.32    0.00    0.00    0.00    0.00    0.00     0.00    0.00    0.00    0.00
  286    6.10    0.00    2.69    0.02    0.00    0.00   84.13    3.46    4.76    2.72    0.00    0.00    0.00    0.00    0.00     0.00    0.00    0.00    0.00
  287    0.30    0.00    0.92    0.02    0.00    0.00   81.59    2.84    5.99    0.95    0.00    0.00    0.00    0.00    0.00     0.00    0.00    0.00    0.00
  288   43.70   12.43   14.49    0.02    0.14    0.00   87.09    4.04    5.03   26.93    0.15    0.00    0.03    0.00    0.00     0.23    0.00    0.03    0.00
  289    0.00    0.00    4.98    0.02    0.00    0.00   84.49    2.60    5.45    5.01    0.00    0.00    0.01    0.00    0.00     0.00    0.00    0.00    0.00
  290    2.30    0.00    2.05    0.02    0.00    0.00   83.21    3.07    5.40    2.07    0.00    0.00    0.00    0.00    0.00     0.00    0.00    0.00    0.00
  291    2.00    0.00    1.01    0.02    0.00    0.00   81.41    3.34    6.86    1.03    0.00    0.00    0.00    0.00    0.00     0.00    0.00    0.00    0.00
  292   27.40    3.89    9.52    0.02    0.08    0.00   86.82    4.04    5.03   13.43    0.09    0.00    0.01    0.00    0.00     0.13    0.00    0.02    0.00
  293    6.10    0.00    4.93    0.02    0.01    0.00   86.19    4.20    5.31    4.95    0.00    0.00    0.00    0.00    0.00     0.00    0.00    0.00    0.00
  294    0.00    0.00    1.69    0.02    0.00    0.00   83.60    2.59    5.57    1.72    0.00    0.00    0.00    0.00    0.00     0.00    0.00    0.00    0.00
  295    0.00    0.00    0.58    0.02    0.00    0.00   81.69    1.91    5.39    0.60    0.00    0.00    0.00    0.00    0.00     0.00    0.00    0.00    0.00
  296    0.00    0.00    0.20    0.02    0.00    0.00   79.55    2.14    7.16    0.22    0.00    0.00    0.00    0.00    0.00     0.00    0.00    0.00    0.00
  297    1.00    0.00    0.07    0.02    0.00    0.00   78.20    2.36    6.11    0.09    0.00    0.00    0.00    0.00    0.00     0.00    0.00    0.00    0.00
  298    0.00    0.00    0.02    0.02    0.00    0.00   76.61    1.59    6.23    0.04    0.00    0.00    0.00    0.00    0.00     0.00    0.00    0.00    0.00
  299    0.00    0.00    0.01    0.02    0.00    0.00   75.28    1.33    6.20    0.03    0.00    0.00    0.00    0.00    0.00     0.00    0.00    0.00    0.00
  300    0.00    0.00    0.00    0.02    0.00    0.00   73.72    1.55    7.95    0.02    0.00    0.00    0.00    0.00    0.00     0.00    0.00    0.00    0.00
  301    0.00    0.00    0.00    0.02    0.00    0.00   72.50    1.23    6.86    0.02    0.00    0.00    0.00    0.00    0.00     0.00    0.00    0.00    0.00
  302    0.30    0.00    0.00    0.02    0.00    0.00   71.75    1.05    4.85    0.02    0.00    0.00    0.00    0.00    0.00     0.00    0.00    0.00    0.00
  303   12.70    0.01    3.63    0.02    0.00    0.00   76.52    2.39    4.77    3.66    0.00    0.00    0.00    0.00    0.00     0.00    0.00    0.00    0.00
  304   37.10    7.75   12.82    0.02    0.07    0.00   84.61    3.54    4.22   20.59    0.36    0.00    0.01    0.00    0.00     0.47    0.00    0.06    0.00
   10  234.50   53.57   93.61    0.65    0.43    0.00   84.61   73.82  163.43  147.90    1.00    0.01    0.13    0.01    0.00     1.47    0.00    0.18    0.00
  305    1.30    0.00    4.49    0.02    0.00    0.00   82.20    3.59    5.51    4.51    0.00    0.00    0.00    0.00    0.00     0.00    0.00    0.00    0.00
  306    3.60    0.00    2.36    0.02    0.00    0.00   82.42    2.14    2.61    2.37    0.00    0.00    0.00    0.00    0.00     0.00    0.00    0.00    0.00
  307    0.00    0.00    0.81    0.02    0.00    0.00   79.88    2.54    6.09    0.83    0.00    0.00    0.00    0.00    0.00     0.00    0.00    0.00    0.00
  308    0.00    0.00    0.28    0.02    0.00    0.00   77.47    2.41    7.61    0.30    0.00    0.00    0.00    0.00    0.00     0.00    0.00    0.00    0.00
  309    0.00    0.00    0.10    0.02    0.00    0.00   75.57    1.90    7.32    0.11    0.00    0.00    0.00    0.00    0.00     0.00    0.00    0.00    0.00
  310    0.00    0.00    0.03    0.01    0.00    0.00   73.93    1.64    7.24    0.05    0.00    0.00    0.00    0.00    0.00     0.00    0.00    0.00    0.00
  311    0.00    0.00    0.01    0.01    0.00    0.00   72.50    1.43    7.04    0.03    0.00    0.00    0.00    0.00    0.00     0.00    0.00    0.00    0.00
  312    3.00    0.00    0.54    0.01    0.00    0.00   72.30    2.38    6.63    0.56    0.00    0.00    0.00    0.00    0.00     0.00    0.00    0.00    0.00
  313    5.30    0.00    1.54    0.01    0.00    0.00   73.26    2.28    5.38    1.55    0.00    0.00    0.00    0.00    0.00     0.00    0.00    0.00    0.00
  314    3.60    0.00    1.34    0.01    0.00    0.00   73.83    1.80    3.14    1.36    0.00    0.00    0.00    0.00    0.00     0.00    0.00    0.00    0.00
  315    3.00    0.00    1.08    0.01    0.00    0.00   73.81    2.07    4.06    1.10    0.00    0.00    0.00    0.00    0.00     0.00    0.00    0.00    0.00
  316    1.30    0.00    0.45    0.01    0.00    0.00   73.03    1.96    3.87    0.47    0.00    0.00    0.00    0.00    0.00     0.00    0.00    0.00    0.00
  317   38.40    7.82   11.94    0.01    0.07    0.00   81.97    3.61    4.38   19.77    0.21    0.00    0.01    0.00    0.00     0.31    0.00    0.04    0.00
  318    0.00    0.00    4.10    0.01    0.00    0.00   80.23    1.75    3.46    4.12    0.00    0.00    0.00    0.00    0.00     0.00    0.00    0.00    0.00
  319    0.00    0.00    1.41    0.01    0.00    0.00   79.64    0.59    1.42    1.43    0.00    0.00    0.00    0.00    0.00     0.00    0.00    0.00    0.00
  320    0.00    0.00    0.49    0.01    0.00    0.00   77.64    2.00    5.47    0.50    0.00    0.00    0.00    0.00    0.00     0.00    0.00    0.00    0.00
  321    0.00    0.00    0.17    0.01    0.00    0.00   76.47    1.17    3.82    0.18    0.00    0.00    0.00    0.00    0.00     0.00    0.00    0.00    0.00
  322    9.40    0.00    2.63    0.01    0.00    0.00   78.49    3.47    5.34    2.64    0.00    0.00    0.00    0.00    0.00     0.00    0.00    0.00    0.00
  323    4.80    0.00    2.10    0.01    0.00    0.00   77.49    3.98    6.49    2.11    0.00    0.00    0.00    0.00    0.00     0.00    0.00    0.00    0.00
  324    8.60    0.00    3.12    0.01    0.01    0.00   79.73    2.68    3.00    3.14    0.00    0.00    0.00    0.00    0.00     0.00    0.00    0.00    0.00
  325    2.30    0.00    1.47    0.01    0.00    0.00   78.03    3.39    4.74    1.49    0.00    0.00    0.00    0.00    0.00     0.00    0.00    0.00    0.00
  326    3.30    0.00    1.22    0.01    0.00    0.00   77.48    2.77    3.87    1.24    0.00    0.00    0.00    0.00    0.00     0.00    0.00    0.00    0.00
  327    0.30    0.00    0.42    0.01    0.00    0.00   75.69    2.09    4.40    0.43    0.00    0.00    0.00    0.00    0.00     0.00    0.00    0.00    0.00
  328   48.30   13.94   15.59    0.01    0.14    0.00   82.71    3.67    4.43   29.53    0.45    0.00    0.04    0.00    0.00     0.64    0.00    0.08    0.00
  329    0.00    0.00    5.36    0.01    0.00    0.00   80.21    2.50    5.11    5.38    0.00    0.00    0.01    0.00    0.00     0.00    0.00    0.00    0.00
  330    0.00    0.00    1.84    0.01    0.00    0.00   77.83    2.38    6.46    1.86    0.00    0.00    0.00    0.00    0.00     0.00    0.00    0.00    0.00
  331    5.30    0.00    1.91    0.01    0.00    0.00   77.90    3.29    6.01    1.92    0.00    0.00    0.00    0.00    0.00     0.00    0.00    0.00    0.00
  332    6.10    0.00    2.26    0.01    0.00    0.00   78.38    3.17    5.12    2.27    0.00    0.00    0.00    0.00    0.00     0.00    0.00    0.00    0.00
  333    0.50    0.00    0.78    0.01    0.00    0.00   76.21    2.68    6.09    0.79    0.00    0.00    0.00    0.00    0.00     0.00    0.00    0.00    0.00
  334   32.50    5.46   11.39    0.01    0.09    0.00   82.93    3.28    3.77   16.86    0.29    0.00    0.02    0.00    0.00     0.36    0.00    0.04    0.00
   11  180.90   27.22   81.23    0.39    0.31    0.00   82.93   74.58  149.86  108.89    0.94    0.00    0.11    0.01    0.00     1.31    0.00    0.16    0.00
  335   10.90    0.01    8.50    0.01    0.05    0.00   82.91    3.87    4.76    8.52    0.00    0.00    0.02    0.00    0.00     0.00    0.00    0.00    0.00
  336    0.30    0.00    2.92    0.01    0.00    0.00   81.98    1.23    2.19    2.93    0.00    0.00    0.01    0.00    0.00     0.00    0.00    0.00    0.00
  337    5.80    0.00    2.53    0.01    0.00    0.00   81.46    4.00    5.42    2.54    0.00    0.00    0.00    0.00    0.00     0.00    0.00    0.00    0.00
  338    2.30    0.00    1.27    0.01    0.00    0.00   79.93    3.23    5.02    1.28    0.00    0.00    0.00    0.00    0.00     0.00    0.00    0.00    0.00
  339    4.30    0.00    1.47    0.01    0.00    0.00   79.58    3.07    4.69    1.48    0.00    0.00    0.00    0.00    0.00     0.00    0.00    0.00    0.00
  340   22.60    1.97    9.18    0.01    0.09    0.00   82.94    3.97    4.92   11.16    0.18    0.00    0.02    0.00    0.00     0.20    0.00    0.02    0.00
  341   14.50    0.29    9.32    0.01    0.07    0.00   84.51    3.18    3.60    9.62    0.00    0.00    0.02    0.00    0.00     0.02    0.00    0.00    0.00
  342    0.50    0.00    3.20    0.01    0.00    0.00   82.23    2.78    4.57    3.22    0.00    0.00    0.01    0.00    0.00     0.00    0.00    0.00    0.00
  343   50.50   16.91   17.58    0.01    0.23    0.00   87.10    3.37    3.87   34.49    1.44    0.00    0.04    0.01    0.00     1.58    0.00    0.19    0.00
  344   21.60    2.20   15.43    0.01    0.17    0.00   88.68    3.34    3.81   17.66    0.00    0.00    0.03    0.00    0.00     0.12    0.00    0.02    0.00
  345   41.10   12.22   20.15    0.01    0.34    0.00   92.31    2.30    2.33   32.37    1.55    0.00    0.04    0.01    0.00     1.49    0.00    0.18    0.00
  346    1.30    0.00    7.01    0.01    0.00    0.00   90.55    2.93    3.53    7.03    0.00    0.00    0.01    0.00    0.00     0.00    0.00    0.00    0.00
  347   17.50    1.17    9.86    0.01    0.24    0.00   92.15    3.14    3.44   11.05    0.07    0.00    0.02    0.00    0.00     0.08    0.00    0.01    0.00
  348    8.40    0.00    6.70    0.02    0.08    0.00   91.48    3.96    4.78    6.72    0.00    0.00    0.01    0.00    0.00     0.00    0.00    0.00    0.00
  349    1.50    0.00    2.45    0.02    0.00    0.00   89.41    3.35    4.93    2.47    0.00    0.00    0.00    0.00    0.00     0.00    0.00    0.00    0.00
  350    1.00    0.00    0.84    0.02    0.00    0.00   86.96    3.44    6.38    0.86    0.00    0.00    0.00    0.00    0.00     0.00    0.00    0.00    0.00
  351    6.60    0.00    2.05    0.02    0.00    0.00   86.50    4.38    7.72    2.07    0.00    0.00    0.00    0.00    0.00     0.00    0.00    0.00    0.00
  352    3.30    0.00    1.42    0.02    0.00    0.00   84.94    3.77    7.43    1.44    0.00    0.00    0.00    0.00    0.00     0.00    0.00    0.00    0.00
  353    0.00    0.00    0.49    0.02    0.00    0.00   82.53    2.41    7.47    0.51    0.00    0.00    0.00    0.00    0.00     0.00    0.00    0.00    0.00
  354    6.40    0.00    1.80    0.02    0.00    0.00   83.22    3.22    6.55    1.82    0.00    0.00    0.00    0.00    0.00     0.00    0.00    0.00    0.00
  355    6.60    0.00    2.38    0.02    0.00    0.00   84.25    2.89    4.79    2.40    0.00    0.00    0.00    0.00    0.00     0.00    0.00    0.00    0.00
  356    0.00    0.00    0.82    0.02    0.00    0.00   82.39    1.85    5.03    0.84    0.00    0.00    0.00    0.00    0.00     0.00    0.00    0.00    0.00
  357    3.30    0.00    0.93    0.02    0.00    0.00   82.52    2.18    3.55    0.95    0.00    0.00    0.00    0.00    0.00     0.00    0.00    0.00    0.00
  358   16.30    0.56    5.59    0.02    0.02    0.00   86.67    3.54    4.26    6.17    0.01    0.00    0.00    0.00    0.00     0.02    0.00    0.00    0.00
  359    3.30    0.00    2.64    0.02    0.00    0.00   86.02    2.86    3.52    2.66    0.00    0.00    0.00    0.00    0.00     0.00    0.00    0.00    0.00
  360    2.00    0.00    1.21    0.02    0.00    0.00   84.95    2.60    3.42    1.23    0.00    0.00    0.00    0.00    0.00     0.00    0.00    0.00    0.00
  361    1.00    0.00    0.42    0.02    0.00    0.00   83.24    2.71    4.37    0.44    0.00    0.00    0.00    0.00    0.00     0.00    0.00    0.00    0.00
  362    0.00    0.00    0.14    0.02    0.00    0.00   81.26    1.98    5.33    0.17    0.00    0.00    0.00    0.00    0.00     0.00    0.00    0.00    0.00
  363    7.10    0.00    1.90    0.02    0.00    0.00   82.12    3.42    5.82    1.93    0.00    0.00    0.00    0.00    0.00     0.00    0.00    0.00    0.00
  364    1.00    0.00    0.65    0.02    0.00    0.00   80.91    2.21    3.69    0.68    0.00    0.00    0.00    0.00    0.00     0.00    0.00    0.00    0.00
  365   48.80   15.50   14.46    0.02    0.12    0.00   88.56    3.84    4.62   29.97    1.79    0.00    0.02    0.00    0.00     1.71    0.00    0.21    0.00
   12  309.80   50.84  155.29    0.49    1.41    0.00   88.56   95.01  145.80  206.68    5.05    0.00    0.26    0.03    0.00     5.23    0.00    0.64    0.00

 2013 3096.30  656.09 1512.35    8.69   21.96    0.00   88.56  898.01 1498.81 2178.54   25.20    0.05    2.24    0.92    9.14    44.73    0.03    5.47    0.00
1
    SWAT Dec 23 2016    VER 2016/Rev 664                                            

    General Input/Output section (file.cio):                                        
    2/12/2020 14:38:35 QSWAT Workflow v1.5.2                                        
                                                                                    
Annual Summary for Watershed in year    5 of simulation

UNIT                                    PERCO    TILE                           WATER     SED     NO3     NO3     NO3     NO3        N       P       P
TIME     PREC    SURQ    LATQ     GWQ    LATE       Q     SW       ET     PET   YIELD   YIELD    SURQ    LATQ    PERC    CROP  ORGANIC SOLUBLE ORGANIC TILENO3
         (mm)    (mm)    (mm)    (mm)    (mm)    (mm)    (mm)    (mm)    (mm)    (mm)   (t/ha)  ------------------(kg nutrient/ha)-------------------- (kg/ha)
    1   88.40   48.32   26.02    0.02    0.56    0.00   93.81    2.19    2.21   74.33    4.43    0.00    0.05    0.01    0.00    12.05    0.00    1.47    0.00
    2   60.50   27.20   27.33    0.02    0.91    0.00   95.71    2.47    2.49   54.56    0.00    0.00    0.06    0.02    0.00     5.84    0.00    0.71    0.00
    3   51.10   20.57   26.69    0.02    1.21    0.00   95.14    3.53    4.03   47.28    2.46    0.00    0.06    0.03    0.00     3.86    0.00    0.47    0.00
    4   32.50    8.14   22.17    0.02    0.95    0.00   95.02    3.72    4.34   30.34    0.00    0.00    0.05    0.02    0.00     0.77    0.00    0.09    0.00
    5    3.60    0.00    8.43    0.03    0.00    0.00   94.11    3.27    4.02    8.47    0.00    0.00    0.02    0.00    0.00     0.00    0.00    0.00    0.00
    6   38.60   11.65   16.91    0.03    0.91    0.00   96.40    2.40    2.42   28.59    1.20    0.00    0.03    0.02    0.00     1.83    0.00    0.22    0.00
    7   32.30    8.21   19.26    0.03    1.12    0.00   96.25    2.64    2.66   27.50    0.00    0.00    0.04    0.03    0.00     1.22    0.00    0.15    0.00
    8   29.50    6.63   19.19    0.03    1.00    0.00   96.08    2.89    2.99   25.86    0.53    0.00    0.04    0.03    0.00     0.82    0.00    0.10    0.00
    9   29.20    6.45   18.97    0.03    0.95    0.00   96.26    2.76    2.78   25.46    0.06    0.00    0.03    0.03    0.00     0.88    0.00    0.11    0.00
   10    2.50    0.00    6.99    0.03    0.00    0.00   94.90    3.15    3.70    7.02    0.00    0.00    0.01    0.00    0.00     0.00    0.00    0.00    0.00
   11    1.30    0.00    2.49    0.03    0.00    0.00   93.21    2.86    3.85    2.52    0.00    0.00    0.00    0.00    0.00     0.00    0.00    0.00    0.00
   12    0.50    0.00    0.86    0.03    0.00    0.00   91.40    2.31    4.21    0.89    0.00    0.00    0.00    0.00    0.00     0.00    0.00    0.00    0.00
   13    0.50    0.00    0.30    0.04    0.00    0.00   89.66    2.24    4.87    0.33    0.00    0.00    0.00    0.00    0.00     0.00    0.00    0.00    0.00
   14    7.10    0.00    1.98    0.04    0.00    0.00   90.23    3.67    6.06    2.02    0.00    0.00    0.00    0.00    0.00     0.00    0.00    0.00    0.00
   15    0.00    0.00    0.68    0.04    0.00    0.00   87.73    2.51    6.64    0.72    0.00    0.00    0.00    0.00    0.00     0.00    0.00    0.00    0.00
   16   45.50   14.87   13.13    0.04    0.15    0.00   94.18    4.36    5.38   28.04    2.45    0.00    0.01    0.00    0.00     3.10    0.00    0.38    0.00
   17    0.50    0.00    4.51    0.04    0.00    0.00   92.17    2.52    4.28    4.56    0.00    0.00    0.00    0.00    0.00     0.00    0.00    0.00    0.00
   18    0.00    0.00    1.55    0.04    0.00    0.00   90.21    1.95    4.82    1.60    0.00    0.00    0.00    0.00    0.00     0.00    0.00    0.00    0.00
   19    2.80    0.00    1.02    0.04    0.00    0.00   89.39    2.89    5.16    1.06    0.00    0.00    0.00    0.00    0.00     0.00    0.00    0.00    0.00
   20    8.10    0.00    2.59    0.04    0.00    0.00   90.60    3.47    5.20    2.64    0.00    0.00    0.00    0.00    0.00     0.00    0.00    0.00    0.00
   21    1.00    0.00    0.89    0.04    0.00    0.00   88.53    3.07    5.50    0.93    0.00    0.00    0.00    0.00    0.00     0.00    0.00    0.00    0.00
   22    5.30    0.00    1.65    0.04    0.00    0.00   88.07    3.71    6.58    1.70    0.00    0.00    0.00    0.00    0.00     0.00    0.00    0.00    0.00
   23    1.30    0.00    0.65    0.04    0.00    0.00   85.88    3.36    7.09    0.70    0.00    0.00    0.00    0.00    0.00     0.00    0.00    0.00    0.00
   24   11.20    0.04    3.43    0.04    0.00    0.00   88.22    3.93    5.79    3.52    0.00    0.00    0.00    0.00    0.00     0.00    0.00    0.00    0.00
   25   44.40   14.25   14.82    0.04    0.16    0.00   94.23    3.19    3.49   29.11    1.11    0.00    0.01    0.00    0.00     1.60    0.00    0.20    0.00
   26   33.80    8.75   18.08    0.04    0.54    0.00   95.65    3.30    3.65   26.88    0.20    0.00    0.03    0.01    0.00     1.56    0.00    0.19    0.00
   27    5.60    0.00    7.84    0.04    0.01    0.00   94.17    4.59    5.74    7.89    0.00    0.00    0.01    0.00    0.00     0.00    0.00    0.00    0.00
   28    0.50    0.00    2.70    0.04    0.00    0.00   91.73    2.93    5.31    2.75    0.00    0.00    0.00    0.00    0.00     0.00    0.00    0.00    0.00
   29    0.80    0.00    0.93    0.04    0.00    0.00   89.71    2.82    5.71    0.98    0.00    0.00    0.00    0.00    0.00     0.00    0.00    0.00    0.00
   30    4.80    0.00    1.49    0.04    0.00    0.00   89.38    3.35    6.10    1.54    0.00    0.00    0.00    0.00    0.00     0.00    0.00    0.00    0.00
   31    6.40    0.00    2.21    0.04    0.00    0.00   89.66    3.52    5.80    2.26    0.00    0.00    0.00    0.00    0.00     0.00    0.00    0.00    0.00
    1  549.60  175.10  275.75    1.10    8.47    0.00   89.66   95.59  142.87  452.04   12.44    0.01    0.46    0.20    0.00    33.52    0.01    4.10    0.00
   32    1.00    0.00    0.76    0.04    0.00    0.00   87.79    2.88    5.40    0.81    0.00    0.00    0.00    0.00    0.00     0.00    0.00    0.00    0.00
   33    3.00    0.00    0.88    0.04    0.00    0.00   86.47    3.38    7.01    0.93    0.00    0.00    0.00    0.00    0.00     0.00    0.00    0.00    0.00
   34    0.50    0.00    0.30    0.04    0.00    0.00   84.60    2.37    6.30    0.35    0.00    0.00    0.00    0.00    0.00     0.00    0.00    0.00    0.00
   35    0.00    0.00    0.10    0.04    0.00    0.00   82.89    1.71    6.39    0.15    0.00    0.00    0.00    0.00    0.00     0.00    0.00    0.00    0.00
   36    0.00    0.00    0.04    0.04    0.00    0.00   81.43    1.45    6.34    0.08    0.00    0.00    0.00    0.00    0.00     0.00    0.00    0.00    0.00
   37    0.00    0.00    0.01    0.04    0.00    0.00   80.50    0.93    4.47    0.06    0.00    0.00    0.00    0.00    0.00     0.00    0.00    0.00    0.00
   38    0.00    0.00    0.00    0.04    0.00    0.00   78.96    1.54    5.43    0.05    0.00    0.00    0.00    0.00    0.02     0.00    0.00    0.00    0.00
   39   25.10    2.78    6.73    0.04    0.01    0.00   85.91    5.10    6.63    9.56    0.39    0.00    0.00    0.00    0.38     0.47    0.00    0.06    0.00
   40   26.40    3.96   11.48    0.04    0.08    0.00   89.48    4.83    5.90   15.48    0.00    0.00    0.00    0.00    0.43     0.45    0.00    0.05    0.00
   41    0.00    0.00    3.95    0.04    0.00    0.00   86.36    3.12    6.19    3.99    0.00    0.00    0.00    0.00    0.48     0.00    0.00    0.00    0.00
   42    0.00    0.00    1.36    0.04    0.00    0.00   83.65    2.71    6.19    1.40    0.00    0.00    0.00    0.00    0.52     0.00    0.00    0.00    0.00
   43    3.00    0.00    1.01    0.04    0.00    0.00   82.08    3.74    6.51    1.05    0.00    0.00    0.00    0.00    0.62     0.00    0.00    0.00    0.00
   44    2.00    0.00    0.64    0.04    0.00    0.00   79.96    3.68    5.89    0.68    0.00    0.00    0.00    0.00    0.69     0.00    0.00    0.00    0.00
   45   25.90    3.16    7.61    0.04    0.04    0.00   86.88    4.53    4.66   10.81    0.05    0.00    0.00    0.00    0.72     0.09    0.00    0.01    0.00
   46   17.30    0.95    9.15    0.04    0.06    0.00   89.11    4.09    4.10   10.14    0.00    0.00    0.00    0.00    0.59     0.01    0.00    0.00    0.00
   47    2.30    0.00    3.52    0.04    0.00    0.00   85.49    5.35    6.39    3.56    0.00    0.00    0.00    0.00    0.50     0.00    0.00    0.00    0.00
   48    4.10    0.00    2.15    0.04    0.00    0.00   85.01    3.15    3.32    2.19    0.00    0.00    0.00    0.00    0.49     0.00    0.00    0.00    0.00
   49   13.50    0.21    5.00    0.04    0.03    0.00   88.02    3.75    3.76    5.26    0.00    0.00    0.00    0.00    0.48     0.00    0.00    0.00    0.00
   50    2.00    0.00    2.03    0.04    0.00    0.00   85.13    4.41    4.70    2.08    0.00    0.00    0.00    0.00    0.32     0.00    0.00    0.00    0.00
   51   30.00    5.48   10.97    0.04    0.10    0.00   89.82    4.07    4.07   16.49    0.01    0.00    0.00    0.00    0.45     0.01    0.00    0.00    0.00
   52   51.60   19.52   19.97    0.04    0.28    0.00   92.84    4.09    4.09   39.53    0.02    0.00    0.00    0.00    0.26     0.04    0.00    0.01    0.00
   53    0.30    0.00    6.86    0.04    0.00    0.00   90.04    3.10    3.69    6.92    0.00    0.00    0.00    0.00    0.20     0.00    0.00    0.00    0.00
   54    0.80    0.00    2.36    0.04    0.00    0.00   87.05    3.79    4.65    2.41    0.00    0.00    0.00    0.00    0.11     0.00    0.00    0.00    0.00
   55   30.70    6.08   10.32    0.04    0.12    0.00   92.21    4.85    4.86   16.44    0.01    0.00    0.00    0.00    0.09     0.01    0.00    0.00    0.00
   56   30.50    6.65   14.95    0.04    0.40    0.00   93.40    4.90    5.05   21.64    0.00    0.00    0.00    0.00    0.10     0.02    0.00    0.00    0.00
   57   45.50   16.07   20.25    0.04    0.90    0.00   95.55    3.36    3.36   36.35    0.02    0.00    0.00    0.00    0.11     0.04    0.00    0.01    0.00
   58   35.80   10.15   20.82    0.04    1.09    0.00   94.23    4.75    4.86   31.01    0.00    0.00    0.00    0.00    0.02     0.02    0.00    0.00    0.00
   59    0.30    0.00    7.16    0.04    0.00    0.00   91.49    3.05    4.04    7.21    0.00    0.00    0.00    0.00    0.02     0.00    0.00    0.00    0.00
    2  351.60   75.02  170.37    1.14    3.12    0.00   91.49   98.67  144.25  246.63    0.49    0.00    0.02    0.01    7.60     1.16    0.00    0.14    0.00
   60    5.10    0.00    3.72    0.04    0.00    0.00   89.80    4.86    5.68    3.77    0.00    0.00    0.00    0.00    0.02     0.00    0.00    0.00    0.00
   61    6.60    0.00    3.01    0.04    0.00    0.00   89.60    4.16    4.70    3.06    0.00    0.00    0.00    0.00    0.02     0.00    0.00    0.00    0.00
   62    8.60    0.01    3.41    0.04    0.01    0.00   89.20    5.37    5.89    3.46    0.00    0.00    0.00    0.00    0.02     0.00    0.00    0.00    0.00
   63    3.60    0.00    1.95    0.04    0.00    0.00   87.22    4.39    4.95    2.00    0.00    0.00    0.00    0.00    0.06     0.00    0.00    0.00    0.00
   64    0.00    0.00    0.67    0.04    0.00    0.00   83.61    3.61    5.50    0.72    0.00    0.00    0.00    0.00    0.04     0.00    0.00    0.00    0.00
   65   47.20   15.09   12.39    0.05    0.12    0.00   92.27    4.80    4.80   27.52    0.01    0.00    0.00    0.00    0.08     0.02    0.00    0.00    0.00
   66    1.00    0.00    4.26    0.05    0.00    0.00   90.18    3.09    3.39    4.31    0.00    0.00    0.00    0.00    0.04     0.00    0.00    0.00    0.00
   67    7.60    0.00    3.58    0.05    0.00    0.00   89.75    4.80    5.03    3.64    0.00    0.00    0.00    0.00    0.02     0.00    0.00    0.00    0.00
   68    4.30    0.00    2.23    0.05    0.00    0.00   87.60    4.92    5.40    2.28    0.00    0.00    0.00    0.00    0.02     0.00    0.00    0.00    0.00
   69    2.00    0.00    1.04    0.05    0.00    0.00   85.25    3.93    4.37    1.09    0.00    0.00    0.00    0.00    0.07     0.00    0.00    0.00    0.00
   70    0.00    0.00    0.36    0.05    0.00    0.00   81.87    3.38    4.92    0.41    0.00    0.00    0.00    0.00    0.04     0.00    0.00    0.00    0.00
   71    0.50    0.00    0.12    0.05    0.00    0.00   79.16    3.21    4.55    0.17    0.00    0.00    0.00    0.00    0.05     0.00    0.00    0.00    0.00
   72   52.30   17.39   12.57    0.05    0.11    0.00   90.32    4.56    4.56   29.99    0.01    0.00    0.00    0.00    0.06     0.02    0.00    0.00    0.00
   73   30.00    6.14   15.12    0.05    0.18    0.00   93.18    4.36    4.36   21.31    0.00    0.00    0.00    0.00    0.06     0.01    0.00    0.00    0.00
   74    3.00    0.00    5.79    0.04    0.00    0.00   91.15    4.13    4.39    5.84    0.00    0.00    0.00    0.00    0.04     0.00    0.00    0.00    0.00
   75    1.00    0.00    1.99    0.04    0.00    0.00   86.63    5.52    7.32    2.04    0.00    0.00    0.00    0.00    0.02     0.00    0.00    0.00    0.00
   76    6.40    0.00    2.35    0.04    0.00    0.00   84.74    5.76    7.64    2.40    0.00    0.00    0.00    0.00    0.06     0.00    0.00    0.00    0.00
   77    0.30    0.00    0.81    0.04    0.00    0.00   81.25    3.79    6.12    0.85    0.00    0.00    0.00    0.00    0.04     0.00    0.00    0.00    0.00
   78    0.30    0.00    0.28    0.04    0.00    0.00   78.19    3.36    5.25    0.32    0.00    0.00    0.00    0.00    0.04     0.00    0.00    0.00    0.00
   79    4.80    0.00    1.25    0.04    0.00    0.00   76.81    4.43    5.41    1.29    0.00    0.00    0.00    0.00    0.04     0.00    0.00    0.00    0.00
   80    0.00    0.00    0.43    0.04    0.00    0.00   73.23    3.58    5.73    0.47    0.00    0.00    0.00    0.00    0.04     0.00    0.00    0.00    0.00
   81    0.00    0.00    0.15    0.04    0.00    0.00   69.79    3.44    5.74    0.19    0.00    0.00    0.00    0.00    0.04     0.00    0.00    0.00    0.00
   82   10.20    0.00    2.87    0.04    0.00    0.00   70.91    4.78    6.16    2.92    0.00    0.00    0.00    0.00    0.04     0.00    0.00    0.00    0.00
   83   19.10    0.63    6.47    0.03    0.00    0.00   76.13    4.89    5.81    7.14    0.00    0.00    0.00    0.00    0.04     0.00    0.00    0.00    0.00
   84    0.00    0.00    2.22    0.03    0.00    0.00   72.64    3.50    5.35    2.26    0.00    0.00    0.00    0.00    0.04     0.00    0.00    0.00    0.00
   85    0.00    0.00    0.76    0.03    0.00    0.00   68.68    3.96    6.28    0.80    0.00    0.00    0.00    0.00    0.04     0.00    0.00    0.00    0.00
   86    0.00    0.00    0.26    0.03    0.00    0.00   64.70    3.98    6.90    0.30    0.00    0.00    0.00    0.00    0.04     0.00    0.00    0.00    0.00
   87    8.60    0.00    2.40    0.03    0.00    0.00   65.33    4.44    5.23    2.44    0.00    0.00    0.00    0.00    0.04     0.00    0.00    0.00    0.00
   88    0.30    0.00    0.83    0.03    0.00    0.00   62.81    2.82    4.30    0.86    0.00    0.00    0.00    0.00    0.04     0.00    0.00    0.00    0.00
   89    0.00    0.00    0.28    0.03    0.00    0.00   59.18    3.63    5.68    0.32    0.00    0.00    0.00    0.00    0.03     0.00    0.00    0.00    0.00
   90    0.00    0.00    0.10    0.03    0.00    0.00   55.65    3.53    5.83    0.13    0.00    0.00    0.00    0.00    0.04     0.00    0.00    0.00    0.00
    3  222.80   39.26   93.69    1.25    0.43    0.00   55.65  128.97  167.25  134.33    0.02    0.00    0.00    0.00    1.29     0.04    0.00    0.00    0.00
   91   43.70    7.08   12.53    0.03    0.02    0.00   70.74    2.45    2.45   19.64    0.00    0.00    0.00    0.00    0.03     0.00    0.00    0.00    0.00
[...]
  HRU      57 SUB  30 FRSE  Yld =  4791.6 BIOM =   6845.2
  HRU      58 SUB  31 BARR  Yld =     0.0 BIOM =      1.0
  HRU      59 SUB  31 BARR  Yld =     0.0 BIOM =      1.0
  HRU      60 SUB  31 BARR  Yld =     0.0 BIOM =      0.9
  HRU      61 SUB  31 FRSE  Yld =  4233.1 BIOM =   6047.3
  HRU      62 SUB  31 FRSE  Yld =  5789.4 BIOM =   8270.6
  HRU      63 SUB  31 FRSE  Yld =  5442.3 BIOM =   7774.7
  HRU      64 SUB  31 FRSE  Yld =  4774.5 BIOM =   6820.8
  HRU      65 SUB  31 FRSE  Yld =  4780.5 BIOM =   6829.3
  HRU      66 SUB  31 FRSE  Yld =  5329.8 BIOM =   7614.0
  HRU      67 SUB  31 FRSD  Yld =  4247.2 BIOM =  11572.8
  HRU      68 SUB  31 FRSD  Yld =  3251.1 BIOM =   9043.4
  HRU      69 SUB  31 FRSD  Yld =  3253.8 BIOM =   9050.1
  HRU      70 SUB  31 FRSD  Yld =  3391.3 BIOM =   9388.5
  HRU      71 SUB  31 FRSD  Yld =  2181.4 BIOM =   6268.5

    HRU STATISTICS

                AVE ANNUAL VALUES

   HRU  SUB  SOIL       AREAkm2    CN     AWCmm   USLE_LS  IRRmm  AUTONkh AUTOPkh  MIXEF PRECmm SURQGENmm   GWQmm    ETmm   SEDth  NO3kgh  ORGNkgh BIOMth   YLDth  SURQmm
      1   1   FAGASA     .873E-01   70.00   97.20    7.99    0.00    0.00    0.00    0.20 3485.48  892.67 1596.94  964.67   20.48    2.09   47.30   11.85    8.30  892.67
      2   2   FAGASA     .167E+00   70.00   97.20    8.01    0.00    0.00    0.00    0.20 3485.48  892.27 1597.77  964.50   22.17    2.09   48.03   11.85    8.30  892.27
      3   3   FAGASA     .377E-01   70.00   97.20   12.96    0.00    0.00    0.00    0.20 3485.48  862.61 1650.34  953.81   28.77    2.26   50.21   12.16    8.51  862.61
      4   3   FAGASA     .298E-02   77.00   97.20   21.18    0.00    0.00    0.00    0.20 3485.48 1075.11 1439.40  963.16    9.24    1.78   41.10   14.73   10.31 1075.11
      5   4   FAGASA     .309E-01   70.00   97.20    9.60    0.00    0.00    0.00    0.20 3485.48  863.50 1647.82  953.98   20.86    2.25   47.25   12.15    8.50  863.50
      6   5   FAGASA     .103E-03   70.00   97.20    0.42    0.00    0.00    0.00    0.20 3485.48  998.57 1312.25 1042.51    0.90    0.07   11.83    5.86    4.10  998.33
      7   5   FAGASA     .358E-01   70.00   97.20   13.20    0.00    0.00    0.00    0.20 3485.48  862.61 1650.39  953.81   29.14    2.26   50.32   12.16    8.51  862.61
      8   5   FAGASA     .252E-01   77.00   97.20   21.18    0.00    0.00    0.00    0.20 3485.48 1075.12 1439.38  963.17   11.96    1.78   46.36   14.72   10.30 1075.12
      9   6   FAGASA     .103E-03   70.00   97.20    0.07    0.00    0.00    0.00    0.20 3485.48  999.13 1309.72 1042.90    0.02    0.02    0.43    5.87    4.11  995.11
     10   6   FAGASA     .103E-03   70.00   97.20    0.21    0.00    0.00    0.00    0.20 3485.48  998.91 1310.69 1042.74    0.36    0.04    5.43    5.86    4.10  998.22
     11   6   FAGASA     .234E-01   70.00   97.20   13.28    0.00    0.00    0.00    0.20 3485.48  862.63 1650.41  953.79   27.86    2.26   49.93   12.16    8.51  862.63
     12   6   FAGASA     .423E-01   77.00   97.20   21.18    0.00    0.00    0.00    0.20 3485.48 1075.08 1439.42  963.17   12.72    1.77   47.60   14.71   10.30 1075.08
     13   7   FAGASA     .103E-03   70.00   97.20    0.07    0.00    0.00    0.00    0.20 3485.48  999.17 1309.61 1042.94    0.02    0.02    0.43    5.87    4.11  995.15
     14   7   FAGASA     .558E-01   70.00   97.20    7.94    0.00    0.00    0.00    0.20 3485.48  893.47 1595.25  965.04   19.28    2.09   46.76   11.85    8.29  893.47
     15   8   FAGASA     .103E-03   70.00   97.20    0.07    0.00    0.00    0.00    0.20 3485.48  999.13 1309.72 1042.90    0.02    0.02    0.43    5.87    4.11  995.11
     16   8   FAGASA     .308E-03   70.00   97.20    0.31    0.00    0.00    0.00    0.20 3485.48  998.65 1311.79 1042.56    0.78    0.06   10.49    5.86    4.10  998.35
     17   8   FAGASA     .645E-01   70.00   97.20    6.12    0.00    0.00    0.00    0.20 3485.48  919.10 1547.36  977.60   15.98    2.12   45.51   11.45    8.01  919.10
     18   9   FAGASA     .488E-01   70.00   97.20    9.66    0.00    0.00    0.00    0.20 3485.48  863.27 1648.14  953.98   22.12    2.24   47.79   12.15    8.51  863.27
     19  10   FAGASA     .103E-03   70.00   97.20    0.44    0.00    0.00    0.00    0.20 3485.48  998.57 1312.29 1042.51    0.94    0.07   12.30    5.86    4.10  998.34
     20  10   FAGASA     .536E-01   70.00   97.20    9.50    0.00    0.00    0.00    0.20 3485.48  863.86 1647.16  954.11   22.02    2.24   47.76   12.14    8.49  863.86
     21  11   FAGASA     .629E-01   70.00   97.20   11.77    0.00    0.00    0.00    0.20 3485.48  862.59 1650.09  953.84   27.77    2.26   49.90   12.16    8.51  862.59
     22  12   FAGASA     .120E+00   70.00   97.20   10.41    0.00    0.00    0.00    0.20 3485.48  862.59 1649.61  953.83   26.50    2.25   49.48   12.16    8.51  862.59
     23  13   FAGASA     .115E+00   70.00   97.20   12.99    0.00    0.00    0.00    0.20 3485.48  862.57 1650.34  953.87   32.94    2.26   51.34   12.16    8.51  862.57
     24  14   FAGASA     .377E-01   70.00   97.20   12.91    0.00    0.00    0.00    0.20 3485.48  862.56 1650.32  953.87   28.63    2.26   50.16   12.16    8.51  862.56
     25  15   FAGASA     .308E-03   72.00   97.20    5.06    0.00  136.01    0.00    0.20 3485.48  896.92 1508.48 1039.92    0.26   15.09    2.31   54.06   35.04  896.92
     26  15   AUA        .492E-02   55.00  165.80    9.82    0.00    0.00    0.00    0.20 3485.48  471.84 1940.58 1023.41    5.09    2.81   25.69   13.01    9.11  471.84
     27  15   FAGASA     .431E-01   70.00   97.20   18.43    0.00    0.00    0.00    0.20 3485.48  862.55 1651.41  953.90   41.58    2.26   52.99   12.15    8.51  862.55
     28  15   AUA        .103E-03   70.00  165.80    0.52    0.00    0.00    0.00    0.20 3485.48 1030.11 1244.02 1082.57    0.42    0.07    5.51   10.66    7.46 1029.90
     29  16   AUA        .718E-03   59.00  165.80    3.09    0.00  134.65    0.00    0.20 3485.48  564.88 1755.77 1102.12    0.08   11.98    0.83   59.13   38.40  564.88
     30  16   AUA        .268E-01   55.00  165.80    8.88    0.00    0.00    0.00    0.20 3485.48  475.48 1931.94 1026.95    5.66    2.72   26.63   13.01    9.11  475.48
     31  16   FAGASA     .205E-03   70.00   97.20    0.07    0.00    0.00    0.00    0.20 3485.48  999.20 1309.49 1042.99    0.04    0.02    0.99    5.87    4.11  995.18
     32  16   FAGASA     .629E-01   70.00   97.20   19.48    0.00    0.00    0.00    0.20 3485.48  862.55 1651.61  953.90   46.01    2.26   53.56   12.15    8.50  862.55
     33  16   AUA        .308E-03   70.00  165.80    2.68    0.00    0.00    0.00    0.20 3485.48 1022.20 1296.50 1070.64    2.66    0.98   22.79   11.94    8.36 1022.20
     34  17   FAGASA     .531E-01   70.00   97.20   10.54    0.00    0.00    0.00    0.20 3485.48  862.61 1649.69  953.81   24.38    2.26   48.71   12.16    8.51  862.61
     35  18   FAGASA     .113E-02   70.00   97.20    6.75    0.00    0.00    0.00    0.20 3485.48  910.96 1561.98  973.02   10.59    2.13   41.59   11.65    8.15  910.96
     36  19   FAGASA     .103E-03   70.00   97.20    0.07    0.00    0.00    0.00    0.20 3485.48  999.18 1309.57 1042.96    0.02    0.02    0.43    5.87    4.11  995.16
     37  19   FAGASA     .502E-01   70.00   97.20   13.46    0.00    0.00    0.00    0.20 3485.48  862.57 1650.44  953.86   30.91    2.26   50.82   12.16    8.51  862.57
     38  20   FAGASA     .272E-01   70.00   97.20   11.34    0.00    0.00    0.00    0.20 3485.48  862.57 1649.99  953.87   24.20    2.26   48.63   12.17    8.52  862.57
     39  21   FAGASA     .137E+00   70.00   97.20    7.44    0.00    0.00    0.00    0.20 3485.48  901.15 1579.04  968.28   20.37    2.09   47.37   11.77    8.24  901.15
     40  22   FAGASA     .168E-01   70.00   97.20   11.05    0.00    0.00    0.00    0.20 3485.48  862.55 1649.93  953.89   22.25    2.26   47.83   12.17    8.52  862.55
     41  23   FAGASA     .205E-03   70.00   97.20    0.07    0.00    0.00    0.00    0.20 3485.48  999.17 1309.63 1042.95    0.08    0.02    1.56    5.87    4.11  996.85
     42  23   FAGASA     .328E-01   70.00   97.20    7.80    0.00    0.00    0.00    0.20 3485.48  895.50 1591.02  965.93   17.86    2.09   46.07   11.83    8.28  895.50
     43  24   FAGASA     .125E-01   70.00   97.20    9.15    0.00    0.00    0.00    0.20 3485.48  870.52 1636.34  956.69   18.05    2.20   45.99   12.00    8.40  870.53
     44  25   FAGASA     .221E-01   70.00   97.20    8.99    0.00    0.00    0.00    0.20 3485.48  874.30 1630.30  957.96   19.06    2.16   46.51   11.99    8.39  874.30
     45  26   FAGASA     .225E-01   70.00   97.20   12.57    0.00    0.00    0.00    0.20 3485.48  862.56 1650.25  953.88   26.20    2.26   49.36   12.17    8.52  862.56
     46  27   FAGASA     .311E-01   70.00   97.20    9.07    0.00    0.00    0.00    0.20 3485.48  872.37 1633.29  957.43   19.99    2.18   46.95   12.00    8.40  872.37
     47  28   FAGASA     .923E-03   70.00   97.20    5.53    0.00    0.00    0.00    0.20 3485.48  926.11 1533.35  982.56    8.91    2.15   40.58   11.25    7.88  926.11
     48  29   AUA        .718E-03   55.00  165.80    0.96    0.00    0.00    0.00    0.20 3485.48  513.96 1732.62 1083.57    0.55    0.13    6.52    9.50    6.65  513.95
     49  29   FAGASA     .103E-03   70.00   97.20    0.42    0.00    0.00    0.00    0.20 3485.48  998.64 1312.04 1042.59    0.90    0.07   11.83    5.86    4.10  998.39
     50  29   FAGASA     .816E-01   70.00   97.20   14.13    0.00    0.00    0.00    0.20 3485.48  862.54 1650.57  953.91   34.39    2.26   51.68   12.16    8.51  862.54
     51  29   AUA        .103E-03   70.00  165.80    0.46    0.00    0.00    0.00    0.20 3485.48 1030.17 1243.78 1082.63    0.35    0.07    4.70   10.66    7.46 1029.94
     52  29   AUA        .103E-03   70.00  165.80    2.41    0.00    0.00    0.00    0.20 3485.48 1028.31 1252.55 1080.82    2.27    0.23   21.00   10.83    7.58 1028.30
     53  30   AUA        .205E-03   55.00  165.80    0.80    0.00    0.00    0.00    0.20 3485.48  514.62 1729.02 1084.12    0.37    0.07    4.58    9.45    6.61  514.57
     54  30   FAGASA     .513E-02   70.00   97.20   11.77    0.00    0.00    0.00    0.20 3485.48  862.53 1650.08  953.91   20.54    2.27   47.07   12.17    8.52  862.53
     55  30   FAGASA     .308E-03   70.00   97.20    4.66    0.00    0.00    0.00    0.20 3485.48  935.80 1513.46  990.05    6.89    2.16   38.54   10.82    7.57  935.80
     56  30   AUA        .103E-03   70.00  165.80    0.08    0.00    0.00    0.00    0.20 3485.48 1030.65 1241.83 1083.03    0.01    0.03    0.20   10.63    7.44 1028.77
     57  30   AUA        .103E-03   70.00  165.80    0.52    0.00    0.00    0.00    0.20 3485.48 1030.14 1243.94 1082.60    0.42    0.07    5.51   10.66    7.46 1029.92
     58  31   AUA        .103E-03   86.00  165.80    0.44    0.00    0.00    0.00    0.20 3485.48 1914.80  480.97 1017.31    6.68    0.17   46.70    0.00    0.00 1913.95
     59  31   AUA        .923E-03   86.00  165.80    0.96    0.00    0.00    0.00    0.20 3485.48 1914.38  483.83 1016.29   21.18    0.25   54.86    0.00    0.00 1914.20
     60  31   FAGASA     .103E-03   91.00   97.20    1.93    0.00    0.00    0.00    0.20 3485.48 2268.97  226.31  946.58   54.18    1.07   56.62    0.00    0.00 2268.97
     61  31   AUA        .103E-03   55.00  165.80    0.10    0.00    0.00    0.00    0.20 3485.48  515.25 1725.87 1084.60    0.00    0.01    0.07    9.41    6.59  514.78
     62  31   AUA        .441E-02   55.00  165.80    3.79    0.00    0.00    0.00    0.20 3485.48  493.42 1876.36 1048.23    2.00    2.05   16.96   12.74    8.92  493.42
     63  31   FAGASA     .164E-01   70.00   97.20   14.65    0.00    0.00    0.00    0.20 3485.48  862.53 1650.67  953.92   29.42    2.27   50.39   12.16    8.51  862.53
     64  31   AUA        .410E-03   70.00  165.80    0.07    0.00    0.00    0.00    0.20 3485.48 1030.67 1241.74 1083.05    0.02    0.03    0.43   10.63    7.44 1026.55
     65  31   AUA        .205E-03   70.00  165.80    0.27    0.00    0.00    0.00    0.20 3485.48 1030.45 1242.62 1082.87    0.23    0.05    3.28   10.64    7.45 1029.86
     66  31   AUA        .185E-02   70.00  165.80    2.22    0.00    0.00    0.00    0.20 3485.48 1023.08 1292.26 1072.08    2.79    0.89   23.45   11.81    8.27 1023.08
     67  31   AUA        .103E-03   66.00  165.80    9.71    0.00    0.00    0.00    0.20 3485.48  803.25 1599.37 1038.25    0.75    2.10    6.94   18.79   13.15  803.25
     68  31   AUA        .616E-03   66.00  165.80    0.08    0.00    0.00    0.00    0.20 3485.48  871.79 1384.77 1093.35    0.00    0.04    0.07   14.16    9.91  870.30
     69  31   AUA        .308E-03   66.00  165.80    0.29    0.00    0.00    0.00    0.20 3485.48  871.59 1385.49 1093.25    0.02    0.06    0.38   14.17    9.92  871.14
     70  31   AUA        .185E-02   66.00  165.80    1.67    0.00    0.00    0.00    0.20 3485.48  867.09 1411.68 1089.58    0.30    0.56    3.61   14.82   10.37  867.09
     71  31   FAGASA     .205E-03   66.00   97.20    2.92    0.00    0.00    0.00    0.20 3485.48  819.74 1552.12 1038.48    1.12    1.45   12.20    9.54    6.68  819.74



                AVE MONTHLY BASIN VALUES
                   SNOW                      WATER               SED
  MON     RAIN     FALL   SURF Q    LAT Q    YIELD       ET    YIELD      PET
          (MM)     (MM)     (MM)     (MM)     (MM)     (MM)   (T/HA)     (MM)
    1   573.80     0.00   172.36   288.70   462.44    90.85    12.98   128.96
    2   248.15     0.00    58.70   129.43   189.76    83.37     1.83   125.56
    3   158.30     0.00    19.64    66.52    87.58   106.30     0.01   141.36
    4   352.75     0.00    49.15   170.50   220.31    87.04     0.02   122.56
    5   177.95     0.00    20.89    95.16   116.75    76.19     0.02   137.45
    6   251.80     0.00    63.92   112.92   177.50    71.09     0.12   113.27
    7   488.95     0.00   230.28   165.05   395.95    68.47     0.82   107.21
    8   292.00     0.00    81.39   146.27   228.71    71.59     0.56   123.60
    9   138.15     0.00    14.00    62.07    76.88    67.87     0.12   144.01
   10   162.50     0.00    31.44    66.74    98.69    62.16     0.59   170.04
   11   256.55     0.00    39.32   128.18   167.88    80.38     0.98   142.35
   12   380.10     0.00    93.48   180.21   274.31    95.69     6.47   146.63

     AVE ANNUAL BASIN STRESS DAYS
               WATER STRESS DAYS =     3.71
               TEMPERATURE STRESS DAYS =     0.11
               NITROGEN STRESS DAYS =     3.38
               PHOSPHORUS STRESS DAYS =     0.00
               AERATION STRESS DAYS =     0.00
1
    SWAT Dec 23 2016    VER 2016/Rev 664                                            

    General Input/Output section (file.cio):                                        
    2/12/2020 14:38:35 QSWAT Workflow v1.5.2                                        
                                                                                    
         AVE ANNUAL BASIN VALUES

              PRECIP =   3485.5 MM
              SNOW FALL =    0.00 MM
              SNOW MELT =     0.00 MM
              SUBLIMATION =     0.00 MM
              SURFACE RUNOFF Q =   876.15 MM
              LATERAL SOIL Q = 1614.20 MM
              TILE Q =     0.00 MM
              GROUNDWATER (SHAL AQ) Q =     9.13 MM
              GROUNDWATER (DEEP AQ) Q =     1.33 MM
              REVAP (SHAL AQ => SOIL/PLANTS) =   32.06 MM
              DEEP AQ RECHARGE =     1.26 MM
              TOTAL AQ RECHARGE =   25.25 MM
              TOTAL WATER YLD =  2500.80 MM
              PERCOLATION OUT OF SOIL =   25.68 MM
              ET =    961.2 MM
              PET =   1602.9MM
              TRANSMISSION LOSSES =     0.00 MM
              SEPTIC INFLOW =       0.00 MM
              TOTAL SEDIMENT LOADING =     24.70 T/HA
              TILE FROM IMPOUNDED WATER =     0.000 (MM)
              EVAPORATION FROM IMPOUNDED WATER =     0.000 (MM)
              SEEPAGE INTO SOIL FROM IMPOUNDED WATER =    0.000 (MM)
              OVERFLOW FROM IMPOUNDED WATER =    0.000 (MM)
1
    SWAT Dec 23 2016    VER 2016/Rev 664                                            

    General Input/Output section (file.cio):                                        
    2/12/2020 14:38:35 QSWAT Workflow v1.5.2                                        
                                                                                    
              AVE ANNUAL BASIN VALUES


              NUTRIENTS
                   ORGANIC N =    48.131 (KG/HA)
                   ORGANIC P =     5.894 (KG/HA)
                   NO3 YIELD (SQ) =     0.051 (KG/HA)
                   NO3 YIELD (LAT) =    2.133 (KG/HA)
                   NO3 YIELD (TILE) =    0.000 (KG/HA)
                   SOLP YIELD (TILE) =    0.000(KG/HA)
                   SOLP YIELD (SURF INLET RISER) =    0.000 (KG/HA)
                   SOL P YIELD =    0.039 (KG/HA)
                   NO3 LEACHED =     0.666 (KG/HA)
                   P LEACHED =     0.010 (KG/HA)
                   N UPTAKE =     9.265 (KG/HA)
                   P UPTAKE =    1.832 (KG/HA)
                   NO3 YIELD (GWQ) =     0.002 (KG/HA)
                   ACTIVE TO SOLUTION P FLOW =         0.582 (KG/HA)
                   ACTIVE TO STABLE P FLOW =         0.968 (KG/HA)
                   N FERTILIZER APPLIED =     0.083 (KG/HA)
                   P FERTILIZER APPLIED =     0.000 (KG/HA)
                   N FIXATION =     0.000 (KG/HA)
                   DENITRIFICATION =     0.000 (KG/HA)
                   HUMUS MIN ON ACTIVE ORG N =    13.588 (KG/HA)
                   ACTIVE TO STABLE ORG N =    -7.070 (KG/HA)
                   HUMUS MIN ON ACTIVE ORG P =    2.326 (KG/HA)
                   MIN FROM FRESH ORG N =    1.855 (KG/HA)
                   MIN FROM FRESH ORG P =    0.337 (KG/HA)
                   NO3 IN RAINFALL =     0.000 (KG/HA)
                   INITIAL NO3 IN SOIL =      37.092 (KG/HA)
                   FINAL NO3 IN SOIL =         6.144 (KG/HA)
                   INITIAL ORG N IN SOIL =   11056.044 (KG/HA)
                   FINAL ORG N IN SOIL =     10518.834 (KG/HA)
                   INITIAL MIN P IN SOIL =    1757.359 (KG/HA)
                   FINAL MIN P IN SOIL =      1713.854 (KG/HA)
                   INITIAL ORG P IN SOIL =    1354.365 (KG/HA)
                   FINAL ORG P IN SOIL =    1285.165 (KG/HA)
                   NO3 IN FERT =     0.083 (KG/HA)
                   AMMONIA IN FERT =     0.000 (KG/HA)
                   ORG N IN FERT =     0.000 (KG/HA)
                   MINERAL P IN FERT =     0.000 (KG/HA)
                   ORG P IN FERT =     0.000 (KG/HA)
                   N REMOVED IN YIELD =     7.104 (KG/HA)
                   P REMOVED IN YIELD =     1.465 (KG/HA)
                   AMMONIA VOLATILIZATION =     0.000 (KG/HA)
                   AMMONIA NITRIFICATION =      0.000 (KG/HA)
                   NO3 EVAP-LAYER 2 TO 1 =    3.623

                   DIE-GRO P Q =           0.0 (No/M2)
                   DIE-GRO LP Q =           0.0 (No/M2)
                   DIE-GRO P SED =          0.0 (No/M2)
                   DIE-GRO LP SED =          0.0 (No/M2)
                   BACT P RUNOFF =          0.0 (No/M2)
                   BACT LP RUNOFF =          0.0 (No/M2)
                   BACT P SEDIMENT =          0.0 (No/M2)
                   BACT LP SEDIMENT =          0.0 (No/M2)
                   BACT P INCORP =          0.0 (No/M2)
                   BACT LP INCORP =          0.0 (No/M2)

                   NITRATE SEPTIC =         0.00 (kg/ha)
                   AMMONIA SEPTIC =         0.00 (kg/ha)
                   ORG N SEPTIC =         0.00 (kg/ha)
                   FRESH ORGN SEPTIC =         0.00 (kg/ha)
                   ORG P SEPTIC =         0.00 (kg/ha)
                   FRESH ORGP SEPTIC =         0.00 (kg/ha)
                   SOL P SEPTIC =         0.00 (kg/ha)
                   BOD SEPTIC =         0.00 (kg/ha)
