1
    SWAT Dec 23 2016    VER 2016/Rev 664                                                                 0/ 0/   0      0: 0: 0

    General Input/Output section (file.cio):                                        
    2/12/2020 14:39:08 QSWAT Workflow v1.5.2                                        
                                                                                    
         Number of years in run:    5
         Area of watershed:        2.071 km2
         Random number generator cycles: 0, use default numbers

         Initial random number seed: wet/dry day prob        748932582
         Initial random number seed: radiation              1948832765
         Initial random number seed: precipitation           857034417
         Initial random number seed: 0.5 hr rainfall          67377721
         Initial random number seed: wind speed              366304404
         Initial random number seed: irrigation             1094585182
         Initial random number seed: relative humidity      1767585417
         Initial random number seed: max temperature         608439319
         Initial random number seed: min temperature         592757081

         Precipitation data used in run:
          Multiple gages read for watershed
             Daily rainfall data used

         Temperature data used in run:
          Multiple gages read for watershed

         PET method used: Penman-Monteith

         Rainfall/Runoff/Routing Option:
          Daily rainfall data
          Runoff estimated with curve number method
          Daily stream routing
           Variable Storage routing method
           Channel dimensions remain constant
           Subbasin algae/CBOD loadings not modeled
           In-stream nutrient transformations modeled using QUAL2E equations

         Subbasin Input Summary:
          Sub Latitude  Elev(m) #HRUs Ponds Elevbnds Wetlnd
            1   -14.29   113.74     7                   
            2   -14.29   150.31    19                   
            3   -14.29   272.67    13                   
            4   -14.29   163.46    16                   
            5   -14.29   245.54    12                   
            6   -14.29    89.95     9                   
            7   -14.29    51.99    11                   
            8   -14.29   138.22    13                   
            9   -14.29    22.56     8                   

         HRU Input Summary Table 1:
          Sub   HRU   Area(ha) Slope SlpLgth(m) Ovrlnd_N CondII_CN TimeConc(hr) ESCO EPCO
            1      1       2.91 0.379       9.15    0.100     55.00        0.082 0.95 1.00
            1      2       7.82 0.637       9.15    0.100     70.00        0.087 0.95 1.00
            1      3       2.40 0.138      24.39    0.100     77.00        0.181 0.95 1.00
            1      4       0.07 0.355       9.15    0.100     77.00        0.072 0.95 1.00
            1      5       1.28 0.147      24.39    0.100     77.00        0.174 0.95 1.00
            1      6       0.47 0.184      18.29    0.100     77.00        0.135 0.95 1.00
            1      7       0.01 0.348       9.15    0.100     77.00        0.072 0.95 1.00
            2      8       0.52 0.286       9.15    0.100     77.00        0.078 0.95 1.00
            2      9       0.42 0.160      24.39    0.100     77.00        0.166 0.95 1.00
            2     10       0.36 0.356       9.15    0.100     77.00        0.073 0.95 1.00
            2     11       0.36 0.334       9.15    0.100     77.00        0.074 0.95 1.00
            2     12       0.03 0.100      60.98    0.100     77.00        0.328 0.95 1.00
            2     13       0.17 0.450       9.15    0.140     77.00        0.083 0.95 1.00
            2     14       0.07 0.462       9.15    0.140     83.00        0.082 0.95 1.00
            2     15       0.06 0.256       9.15    0.100     59.00        0.080 0.95 1.00
            2     16       0.09 0.436       9.15    0.100     72.00        0.068 0.95 1.00
            2     17       0.01 0.220      15.24    0.100     79.00        0.113 0.95 1.00
            2     18       4.85 0.297       9.15    0.100     55.00        0.087 0.95 1.00
            2     19       0.01 0.009     121.95    0.100     77.00        1.025 0.95 1.00
            2     20       0.04 0.023      91.46    0.100     77.00        0.651 0.95 1.00
            2     21       1.94 0.150      24.39    0.100     77.00        0.173 0.95 1.00
            2     22      11.31 0.619       9.15    0.100     70.00        0.084 0.95 1.00
            2     23       0.25 0.174      18.29    0.100     66.00        0.136 0.95 1.00
            2     24       0.09 0.187      18.29    0.100     83.00        0.132 0.95 1.00
            2     25       0.16 0.219      15.24    0.140     94.00        0.139 0.95 1.00
            2     26       0.24 0.225      15.24    0.010     92.00        0.029 0.95 1.00
            3     27       0.27 0.693       9.15    0.100     72.00        0.061 0.95 1.00
            3     28       0.60 0.196      18.29    0.100     55.00        0.134 0.95 1.00
            3     29       0.30 0.153      24.39    0.100     77.00        0.169 0.95 1.00
            3     30       0.01 0.000     121.95    0.100     70.00        3.952 0.95 1.00
            3     31      12.78 0.719       9.15    0.100     70.00        0.112 0.95 1.00
            3     32       0.01 0.318       9.15    0.100     66.00        0.074 0.95 1.00
            3     33       0.51 0.463       9.15    0.100     77.00        0.070 0.95 1.00
            3     34       0.15 0.217      15.24    0.100     77.00        0.114 0.95 1.00
            3     35       0.35 0.143      24.39    0.100     77.00        0.172 0.95 1.00
            3     36       0.13 0.302       9.15    0.100     77.00        0.076 0.95 1.00
            3     37       0.02 0.207      15.24    0.100     77.00        0.115 0.95 1.00
            3     38       0.22 0.134      24.39    0.100     77.00        0.175 0.95 1.00
            3     39       0.01 0.311       9.15    0.100     77.00        0.075 0.95 1.00
            4     40       0.75 0.130      24.39    0.100     77.00        0.176 0.95 1.00
            4     41       1.02 0.211      15.24    0.100     77.00        0.116 0.95 1.00
            4     42       0.03 0.028      91.46    0.100     77.00        0.613 0.95 1.00
            4     43       0.18 0.108      60.98    0.100     77.00        0.321 0.95 1.00
            4     44       0.31 0.238      15.24    0.100     77.00        0.111 0.95 1.00
            4     45       0.17 0.431       9.15    0.140     83.00        0.083 0.95 1.00
            4     46       0.39 0.226      15.24    0.100     72.00        0.113 0.95 1.00
            4     47       0.13 0.147      24.39    0.100     79.00        0.169 0.95 1.00
            4     48       0.03 0.002     121.95    0.100     77.00        1.609 0.95 1.00
            4     49       0.10 0.027      91.46    0.100     77.00        0.620 0.95 1.00
            4     50       2.24 0.130      24.39    0.100     77.00        0.178 0.95 1.00
            4     51       0.03 0.001     121.95    0.100     70.00        1.981 0.95 1.00
            4     52       0.01 0.011     121.95    0.100     70.00        0.965 0.95 1.00
            4     53      61.97 0.545       9.15    0.100     70.00        0.123 0.95 1.00
            4     54       0.55 0.313       9.15    0.100     77.00        0.076 0.95 1.00
            4     55       0.17 0.138      24.39    0.100     83.00        0.172 0.95 1.00
            5     56       0.04 0.284       9.15    0.100     59.00        0.077 0.95 1.00
            5     57       0.06 0.475       9.15    0.100     72.00        0.066 0.95 1.00
            5     58       0.01 0.026      91.46    0.100     55.00        0.627 0.95 1.00
            5     59       5.14 0.246      15.24    0.100     55.00        0.118 0.95 1.00
            5     60       0.14 0.164      18.29    0.100     77.00        0.138 0.95 1.00
            5     61       0.01 0.000     121.95    0.100     70.00        3.952 0.95 1.00
            5     62      46.33 0.627       9.15    0.100     70.00        0.119 0.95 1.00
            5     63       0.08 0.656       9.15    0.140     91.00        0.073 0.95 1.00
            5     64       0.01 0.029      91.46    0.140     91.00        0.743 0.95 1.00
            5     65       1.32 0.237      15.24    0.140     91.00        0.138 0.95 1.00
            5     66       0.02 0.180      18.29    0.140     91.00        0.164 0.95 1.00
            5     67       0.22 0.294       9.15    0.140     91.00        0.094 0.95 1.00
            6     68       0.24 0.205      15.24    0.140     91.00        0.148 0.95 1.00
            6     69       0.53 0.160      24.39    0.140     91.00        0.215 0.95 1.00
            6     70       0.01 0.305       9.15    0.100     66.00        0.076 0.95 1.00
            6     71       0.55 0.249      15.24    0.100     55.00        0.123 0.95 1.00
            6     72       0.01 0.022      91.46    0.100     77.00        0.660 0.95 1.00
            6     73       0.70 0.160      24.39    0.100     77.00        0.182 0.95 1.00
            6     74       0.21 0.665       9.15    0.100     70.00        0.065 0.95 1.00
            6     75       0.06 0.325       9.15    0.100     70.00        0.076 0.95 1.00
            6     76       0.06 0.177      18.29    0.100     70.00        0.136 0.95 1.00
            7     77       0.15 0.202      15.24    0.100     55.00        0.118 0.95 1.00
            7     78       0.01 0.000     121.95    0.100     77.00        3.952 0.95 1.00
            7     79       0.01 0.014     121.95    0.100     77.00        0.897 0.95 1.00
            7     80       0.85 0.126      24.39    0.100     77.00        0.185 0.95 1.00
            7     81       0.01 0.004     121.95    0.100     70.00        1.307 0.95 1.00
            7     82       0.02 0.020      91.46    0.100     70.00        0.679 0.95 1.00
            7     83       2.04 0.345       9.15    0.100     70.00        0.090 0.95 1.00
            7     84       0.47 0.114      60.98    0.100     70.00        0.320 0.95 1.00
            7     85       0.01 0.020      91.46    0.100     70.00        0.679 0.95 1.00
            7     86       0.09 0.206      15.24    0.100     70.00        0.116 0.95 1.00
            7     87       0.12 0.116      60.98    0.100     70.00        0.315 0.95 1.00
            8     88       0.13 0.279       9.15    0.100     70.00        0.078 0.95 1.00
            8     89       0.29 0.022      91.46    0.100     70.00        0.660 0.95 1.00
            8     90       1.35 0.107      60.98    0.100     70.00        0.325 0.95 1.00
            8     91       0.10 0.026      91.46    0.100     70.00        0.627 0.95 1.00
            8     92       0.29 0.097      60.98    0.100     70.00        0.332 0.95 1.00
            8     93       0.01 0.204      15.24    0.100     72.00        0.115 0.95 1.00
            8     94       0.01 0.000     121.95    0.100     70.00        3.952 0.95 1.00
            8     95      21.13 0.546       9.15    0.100     70.00        0.106 0.95 1.00
            8     96       0.01 0.009     121.95    0.100     77.00        1.025 0.95 1.00
            8     97       0.44 0.023      91.46    0.100     77.00        0.652 0.95 1.00
            8     98       2.71 0.117      60.98    0.100     77.00        0.320 0.95 1.00
            8     99       0.55 0.273       9.15    0.100     77.00        0.080 0.95 1.00
            8    100       0.02 0.172      18.29    0.140     94.00        0.166 0.95 1.00
            9    101       0.02 0.488       9.15    0.100     72.00        0.066 0.95 1.00
            9    102       0.01 0.027      91.46    0.100     72.00        0.620 0.95 1.00
            9    103       0.19 0.061      60.98    0.100     72.00        0.386 0.95 1.00
            9    104       0.26 0.142      24.39    0.100     72.00        0.177 0.95 1.00
            9    105       0.13 0.056      60.98    0.100     77.00        0.394 0.95 1.00
            9    106       0.45 0.337       9.15    0.100     70.00        0.083 0.95 1.00
            9    107       0.02 0.097      60.98    0.100     70.00        0.332 0.95 1.00
            9    108       0.02 0.049      91.46    0.100     70.00        0.519 0.95 1.00

         HRU CN Input Summary Table:
          Sub   HRU   Area(ha)  LULC      Soil    CN1    CN2    CN3  Wilting Point (mm H2O)  Field Capacity (mm H2O)  Saturation (mm H2O)
            1      1       2.91  FRSE  AUA        35.3   55.0   74.5                   211.7                    165.8                763.4
            1      2       7.82  FRSE  FAGASA     51.2   70.0   85.7                   132.2                     97.2                365.5
            1      3       2.40  FRSE  URBAN LA   59.3   77.0   89.9                     0.8                      1.5                 75.7
            1      4       0.07  FRSE  FAGASA     59.3   77.0   89.9                   132.2                     97.2                365.5
            1      5       1.28  FRSE  URBAN LA   59.3   77.0   89.9                     0.8                      1.5                 75.7
            1      6       0.47  FRSE  URBAN LA   59.3   77.0   89.9                     0.8                      1.5                 75.7
            1      7       0.01  FRSE  FAGASA     59.3   77.0   89.9                   132.2                     97.2                365.5
            2      8       0.52  FRSE  AUA        59.3   77.0   89.9                   211.7                    165.8                763.4
            2      9       0.42  FRSE  URBAN LA   59.3   77.0   89.9                     0.8                      1.5                 75.7
            2     10       0.36  FRSE  FAGASA     59.3   77.0   89.9                   132.2                     97.2                365.5
            2     11       0.36  FRSE  AUA        59.3   77.0   89.9                   211.7                    165.8                763.4
            2     12       0.03  FRSE  URBAN LA   59.3   77.0   89.9                     0.8                      1.5                 75.7
            2     13       0.17  AGRL  AUA        59.3   77.0   89.9                   211.7                    165.8                763.4
            2     14       0.07  AGRL  FAGASA     67.0   83.0   93.1                   132.2                     97.2                365.5
            2     15       0.06  SWCH  AUA        39.4   59.0   77.7                   211.7                    165.8                763.4
            2     16       0.09  SWCH  FAGASA     53.4   72.0   86.9                   132.2                     97.2                365.5
            2     17       0.01  SWCH  URBAN LA   61.7   79.0   91.0                     0.8                      1.5                 75.7
            2     18       4.85  FRSE  AUA        35.3   55.0   74.5                   211.7                    165.8                763.4
            2     19       0.01  FRSE  URBAN LA   59.3   77.0   89.9                     0.8                      1.5                 75.7
            2     20       0.04  FRSE  URBAN LA   59.3   77.0   89.9                     0.8                      1.5                 75.7
            2     21       1.94  FRSE  URBAN LA   59.3   77.0   89.9                     0.8                      1.5                 75.7
            2     22      11.31  FRSE  FAGASA     51.2   70.0   85.7                   132.2                     97.2                365.5
            2     23       0.25  FRSD  AUA        46.8   66.0   83.0                   211.7                    165.8                763.4
            2     24       0.09  FRSD  URBAN LA   67.0   83.0   93.1                     0.8                      1.5                 75.7
            2     25       0.16  BARR  URBAN LA   85.8   94.0   97.9                     0.8                      1.5                 75.7
            2     26       0.24  WATR  URBAN LA   81.7   92.0   97.1                     0.8                      1.5                 75.7
            3     27       0.27  SWCH  FAGASA     53.4   72.0   86.9                   132.2                     97.2                365.5
            3     28       0.60  FRSE  AUA        35.3   55.0   74.5                   211.7                    165.8                763.4
            3     29       0.30  FRSE  URBAN LA   59.3   77.0   89.9                     0.8                      1.5                 75.7
            3     30       0.01  FRSE  FAGASA     51.2   70.0   85.7                   132.2                     97.2                365.5
            3     31      12.78  FRSE  FAGASA     51.2   70.0   85.7                   132.2                     97.2                365.5
            3     32       0.01  FRSD  AUA        46.8   66.0   83.0                   211.7                    165.8                763.4
            3     33       0.51  FRSD  FAGASA     59.3   77.0   89.9                   132.2                     97.2                365.5
            3     34       0.15  FRSD  AUA        59.3   77.0   89.9                   211.7                    165.8                763.4
            3     35       0.35  FRSD  URBAN LA   59.3   77.0   89.9                     0.8                      1.5                 75.7
            3     36       0.13  FRSD  FAGASA     59.3   77.0   89.9                   132.2                     97.2                365.5
            3     37       0.02  FRSD  AUA        59.3   77.0   89.9                   211.7                    165.8                763.4
            3     38       0.22  FRSD  URBAN LA   59.3   77.0   89.9                     0.8                      1.5                 75.7
            3     39       0.01  FRSD  FAGASA     59.3   77.0   89.9                   132.2                     97.2                365.5
            4     40       0.75  FRSD  URBAN LA   59.3   77.0   89.9                     0.8                      1.5                 75.7
            4     41       1.02  FRSD  FAGASA     59.3   77.0   89.9                   132.2                     97.2                365.5
            4     42       0.03  FRSD  URBAN LA   59.3   77.0   89.9                     0.8                      1.5                 75.7
            4     43       0.18  FRSD  URBAN LA   59.3   77.0   89.9                     0.8                      1.5                 75.7
            4     44       0.31  FRSD  FAGASA     59.3   77.0   89.9                   132.2                     97.2                365.5
            4     45       0.17  AGRL  FAGASA     67.0   83.0   93.1                   132.2                     97.2                365.5
            4     46       0.39  SWCH  FAGASA     53.4   72.0   86.9                   132.2                     97.2                365.5
            4     47       0.13  SWCH  URBAN LA   61.7   79.0   91.0                     0.8                      1.5                 75.7
            4     48       0.03  FRSE  URBAN LA   59.3   77.0   89.9                     0.8                      1.5                 75.7
            4     49       0.10  FRSE  URBAN LA   59.3   77.0   89.9                     0.8                      1.5                 75.7
            4     50       2.24  FRSE  URBAN LA   59.3   77.0   89.9                     0.8                      1.5                 75.7
            4     51       0.03  FRSE  FAGASA     51.2   70.0   85.7                   132.2                     97.2                365.5
            4     52       0.01  FRSE  FAGASA     51.2   70.0   85.7                   132.2                     97.2                365.5
            4     53      61.97  FRSE  FAGASA     51.2   70.0   85.7                   132.2                     97.2                365.5
            4     54       0.55  FRSD  FAGASA     59.3   77.0   89.9                   132.2                     97.2                365.5
            4     55       0.17  FRSD  URBAN LA   67.0   83.0   93.1                     0.8                      1.5                 75.7
            5     56       0.04  SWCH  AUA        39.4   59.0   77.7                   211.7                    165.8                763.4
            5     57       0.06  SWCH  FAGASA     53.4   72.0   86.9                   132.2                     97.2                365.5
            5     58       0.01  FRSE  AUA        35.3   55.0   74.5                   211.7                    165.8                763.4
            5     59       5.14  FRSE  AUA        35.3   55.0   74.5                   211.7                    165.8                763.4
            5     60       0.14  FRSE  URBAN LA   59.3   77.0   89.9                     0.8                      1.5                 75.7
            5     61       0.01  FRSE  FAGASA     51.2   70.0   85.7                   132.2                     97.2                365.5
            5     62      46.33  FRSE  FAGASA     51.2   70.0   85.7                   132.2                     97.2                365.5
            5     63       0.08  BARR  FAGASA     79.8   91.0   96.7                   132.2                     97.2                365.5
            5     64       0.01  BARR  AUA        79.8   91.0   96.7                   211.7                    165.8                763.4
            5     65       1.32  BARR  AUA        79.8   91.0   96.7                   211.7                    165.8                763.4
            5     66       0.02  BARR  URBAN LA   79.8   91.0   96.7                     0.8                      1.5                 75.7
            5     67       0.22  BARR  AUA        79.8   91.0   96.7                   211.7                    165.8                763.4
            6     68       0.24  BARR  AUA        79.8   91.0   96.7                   211.7                    165.8                763.4
            6     69       0.53  BARR  URBAN LA   79.8   91.0   96.7                     0.8                      1.5                 75.7
            6     70       0.01  FRSD  AUA        46.8   66.0   83.0                   211.7                    165.8                763.4
            6     71       0.55  FRSE  AUA        35.3   55.0   74.5                   211.7                    165.8                763.4
            6     72       0.01  FRSE  URBAN LA   59.3   77.0   89.9                     0.8                      1.5                 75.7
            6     73       0.70  FRSE  URBAN LA   59.3   77.0   89.9                     0.8                      1.5                 75.7
            6     74       0.21  FRSE  FAGASA     51.2   70.0   85.7                   132.2                     97.2                365.5
            6     75       0.06  FRSE  AUA        51.2   70.0   85.7                   211.7                    165.8                763.4
            6     76       0.06  FRSE  URBAN LA   51.2   70.0   85.7                     0.8                      1.5                 75.7
            7     77       0.15  FRSE  AUA        35.3   55.0   74.5                   211.7                    165.8                763.4
            7     78       0.01  FRSE  URBAN LA   59.3   77.0   89.9                     0.8                      1.5                 75.7
            7     79       0.01  FRSE  URBAN LA   59.3   77.0   89.9                     0.8                      1.5                 75.7
            7     80       0.85  FRSE  URBAN LA   59.3   77.0   89.9                     0.8                      1.5                 75.7
            7     81       0.01  FRSE  FAGASA     51.2   70.0   85.7                   132.2                     97.2                365.5
            7     82       0.02  FRSE  FAGASA     51.2   70.0   85.7                   132.2                     97.2                365.5
            7     83       2.04  FRSE  FAGASA     51.2   70.0   85.7                   132.2                     97.2                365.5
            7     84       0.47  FRSE  URBAN LA   51.2   70.0   85.7                     0.8                      1.5                 75.7
            7     85       0.01  FRSE  FAGASA     51.2   70.0   85.7                   132.2                     97.2                365.5
            7     86       0.09  FRSE  FAGASA     51.2   70.0   85.7                   132.2                     97.2                365.5
            7     87       0.12  FRSE  URBAN LA   51.2   70.0   85.7                     0.8                      1.5                 75.7
            8     88       0.13  FRSE  FAGASA     51.2   70.0   85.7                   132.2                     97.2                365.5
            8     89       0.29  FRSE  URBAN LA   51.2   70.0   85.7                     0.8                      1.5                 75.7
            8     90       1.35  FRSE  URBAN LA   51.2   70.0   85.7                     0.8                      1.5                 75.7
            8     91       0.10  FRSE  URBAN LA   51.2   70.0   85.7                     0.8                      1.5                 75.7
            8     92       0.29  FRSE  URBAN LA   51.2   70.0   85.7                     0.8                      1.5                 75.7
            8     93       0.01  SWCH  FAGASA     53.4   72.0   86.9                   132.2                     97.2                365.5
            8     94       0.01  FRSE  FAGASA     51.2   70.0   85.7                   132.2                     97.2                365.5
            8     95      21.13  FRSE  FAGASA     51.2   70.0   85.7                   132.2                     97.2                365.5
            8     96       0.01  FRSE  URBAN LA   59.3   77.0   89.9                     0.8                      1.5                 75.7
            8     97       0.44  FRSE  URBAN LA   59.3   77.0   89.9                     0.8                      1.5                 75.7
            8     98       2.71  FRSE  URBAN LA   59.3   77.0   89.9                     0.8                      1.5                 75.7
            8     99       0.55  FRSD  FAGASA     59.3   77.0   89.9                   132.2                     97.2                365.5
            8    100       0.02  BARR  URBAN LA   85.8   94.0   97.9                     0.8                      1.5                 75.7
            9    101       0.02  SWCH  FAGASA     53.4   72.0   86.9                   132.2                     97.2                365.5
            9    102       0.01  SWCH  URBAN LA   53.4   72.0   86.9                     0.8                      1.5                 75.7
            9    103       0.19  SWCH  URBAN LA   53.4   72.0   86.9                     0.8                      1.5                 75.7
            9    104       0.26  SWCH  FAGASA     53.4   72.0   86.9                   132.2                     97.2                365.5
            9    105       0.13  FRSE  URBAN LA   59.3   77.0   89.9                     0.8                      1.5                 75.7
            9    106       0.45  FRSE  FAGASA     51.2   70.0   85.7                   132.2                     97.2                365.5
            9    107       0.02  FRSE  FAGASA     51.2   70.0   85.7                   132.2                     97.2                365.5
            9    108       0.02  FRSE  URBAN LA   51.2   70.0   85.7                     0.8                      1.5                 75.7

         HRU Input Summary Table 2:
          Sub   HRU   Area(ha)         SoilName Hydgrp MaxRtDpth(mm) Albedo USLE_K USLE_P USLE_LS ProfileAWC(mm) IniSoilH2O(mm)
            1      1       2.91 AUA                B          1520.00   0.16   0.17   1.00    5.82    165.800        121.506
            1      2       7.82 FAGASA             C           840.00   0.16   0.10   1.00   12.59     97.200         71.232
            1      3       2.40 URBAN LAND         D           150.00   0.16   0.00   1.00    2.02      1.500          1.099
            1      4       0.07 FAGASA             C           840.00   0.16   0.10   1.00    5.24     97.200         71.232
            1      5       1.28 URBAN LAND         D           150.00   0.16   0.00   1.00    2.24      1.500          1.099
            1      6       0.47 URBAN LAND         D           150.00   0.16   0.00   1.00    2.71      1.500          1.099
            1      7       0.01 FAGASA             C           840.00   0.16   0.10   1.00    5.08     97.200         71.232
            2      8       0.52 AUA                B          1520.00   0.16   0.17   1.00    3.69    165.800        121.506
            2      9       0.42 URBAN LAND         D           150.00   0.16   0.00   1.00    2.56      1.500          1.099
            2     10       0.36 FAGASA             C           840.00   0.16   0.10   1.00    5.27     97.200         71.232
            2     11       0.36 AUA                B          1520.00   0.16   0.17   1.00    4.75    165.800        121.506
            2     12       0.03 URBAN LAND         D           150.00   0.16   0.00   1.00    2.11      1.500          1.099
            2     13       0.17 AUA                B          1520.00   0.16   0.17   1.00    7.62    165.800        121.506
            2     14       0.07 FAGASA             C           840.00   0.16   0.10   1.00    7.94     97.200         71.232
            2     15       0.06 AUA                B          1520.00   0.16   0.17   1.00    3.07    165.800        121.506
            2     16       0.09 FAGASA             C           840.00   0.16   0.10   1.00    7.26     97.200         71.232
            2     17       0.01 URBAN LAND         D           150.00   0.16   0.00   1.00    3.25      1.500          1.099
            2     18       4.85 AUA                B          1520.00   0.16   0.17   1.00    3.92    165.800        121.506
            2     19       0.01 URBAN LAND         D           150.00   0.16   0.00   1.00    0.15      1.500          1.099
            2     20       0.04 URBAN LAND         D           150.00   0.16   0.00   1.00    0.33      1.500          1.099
            2     21       1.94 URBAN LAND         D           150.00   0.16   0.00   1.00    2.31      1.500          1.099
            2     22      11.31 FAGASA             C           840.00   0.16   0.10   1.00   12.11     97.200         71.232
            2     23       0.25 AUA                B          1520.00   0.16   0.17   1.00    2.47    165.800        121.506
            2     24       0.09 URBAN LAND         D           150.00   0.16   0.00   1.00    2.78      1.500          1.099
            2     25       0.16 URBAN LAND         D           100.00   0.16   0.00   1.00    3.23      1.500          1.099
            2     26       0.24 URBAN LAND         D           150.00   0.16   0.00   1.00    3.37      1.500          1.099
            3     27       0.27 FAGASA             C           840.00   0.16   0.10   1.00   14.06     97.200         71.232
            3     28       0.60 AUA                B          1520.00   0.16   0.17   1.00    3.00    165.800        121.506
            3     29       0.30 URBAN LAND         D           150.00   0.16   0.00   1.00    2.39      1.500          1.099
            3     30       0.01 FAGASA             C           840.00   0.16   0.10   1.00    0.07     97.200         71.232
            3     31      12.78 FAGASA             C           840.00   0.16   0.10   1.00   14.72     97.200         71.232
            3     32       0.01 AUA                B          1520.00   0.16   0.17   1.00    4.39    165.800        121.506
            3     33       0.51 FAGASA             C           840.00   0.16   0.10   1.00    7.96     97.200         71.232
            3     34       0.15 AUA                B          1520.00   0.16   0.17   1.00    3.18    165.800        121.506
            3     35       0.35 URBAN LAND         D           150.00   0.16   0.00   1.00    2.14      1.500          1.099
            3     36       0.13 FAGASA             C           840.00   0.16   0.10   1.00    4.03     97.200         71.232
            3     37       0.02 AUA                B          1520.00   0.16   0.17   1.00    2.94    165.800        121.506
            3     38       0.22 URBAN LAND         D           150.00   0.16   0.00   1.00    1.93      1.500          1.099
            3     39       0.01 FAGASA             C           840.00   0.16   0.10   1.00    4.23     97.200         71.232
            4     40       0.75 URBAN LAND         D           150.00   0.16   0.00   1.00    1.84      1.500          1.099
            4     41       1.02 FAGASA             C           840.00   0.16   0.10   1.00    3.03     97.200         71.232
            4     42       0.03 URBAN LAND         D           150.00   0.16   0.00   1.00    0.42      1.500          1.099
            4     43       0.18 URBAN LAND         D           150.00   0.16   0.00   1.00    2.37      1.500          1.099
            4     44       0.31 FAGASA             C           840.00   0.16   0.10   1.00    3.70     97.200         71.232
            4     45       0.17 FAGASA             C           840.00   0.16   0.10   1.00    7.13     97.200         71.232
            4     46       0.39 FAGASA             C           840.00   0.16   0.10   1.00    3.40     97.200         71.232
            4     47       0.13 URBAN LAND         D           150.00   0.16   0.00   1.00    2.24      1.500          1.099
            4     48       0.03 URBAN LAND         D           150.00   0.16   0.00   1.00    0.08      1.500          1.099
            4     49       0.10 URBAN LAND         D           150.00   0.16   0.00   1.00    0.40      1.500          1.099
            4     50       2.24 URBAN LAND         D           150.00   0.16   0.00   1.00    1.84      1.500          1.099
            4     51       0.03 FAGASA             C           840.00   0.16   0.10   1.00    0.07     97.200         71.232
            4     52       0.01 FAGASA             C           840.00   0.16   0.10   1.00    0.17     97.200         71.232
            4     53      61.97 FAGASA             C           840.00   0.16   0.10   1.00   10.14     97.200         71.232
            4     54       0.55 FAGASA             C           840.00   0.16   0.10   1.00    4.27     97.200         71.232
            4     55       0.17 URBAN LAND         D           150.00   0.16   0.00   1.00    2.02      1.500          1.099
            5     56       0.04 AUA                B          1520.00   0.16   0.17   1.00    3.64    165.800        121.506
            5     57       0.06 FAGASA             C           840.00   0.16   0.10   1.00    8.28     97.200         71.232
            5     58       0.01 AUA                B          1520.00   0.16   0.17   1.00    0.38    165.800        121.506
            5     59       5.14 AUA                B          1520.00   0.16   0.17   1.00    3.91    165.800        121.506
            5     60       0.14 URBAN LAND         D           150.00   0.16   0.00   1.00    2.25      1.500          1.099
            5     61       0.01 FAGASA             C           840.00   0.16   0.10   1.00    0.07     97.200         71.232
            5     62      46.33 FAGASA             C           840.00   0.16   0.10   1.00   12.33     97.200         71.232
            5     63       0.08 FAGASA             C           100.00   0.16   0.10   1.00   13.09     97.200         71.232
            5     64       0.01 AUA                B           100.00   0.16   0.17   1.00    0.44    165.800        121.506
            5     65       1.32 AUA                B           100.00   0.16   0.17   1.00    3.67    165.800        121.506
            5     66       0.02 URBAN LAND         D           100.00   0.16   0.00   1.00    2.61      1.500          1.099
            5     67       0.22 AUA                B           100.00   0.16   0.17   1.00    3.86    165.800        121.506
            6     68       0.24 AUA                B           100.00   0.16   0.17   1.00    2.89    165.800        121.506
            6     69       0.53 URBAN LAND         D           100.00   0.16   0.00   1.00    2.56      1.500          1.099
            6     70       0.01 AUA                B          1520.00   0.16   0.17   1.00    4.10    165.800        121.506
            6     71       0.55 AUA                B          1520.00   0.16   0.17   1.00    3.99    165.800        121.506
            6     72       0.01 URBAN LAND         D           150.00   0.16   0.00   1.00    0.31      1.500          1.099
            6     73       0.70 URBAN LAND         D           150.00   0.16   0.00   1.00    2.56      1.500          1.099
            6     74       0.21 FAGASA             C           840.00   0.16   0.10   1.00   13.33     97.200         71.232
            6     75       0.06 AUA                B          1520.00   0.16   0.17   1.00    4.55    165.800        121.506
            6     76       0.06 URBAN LAND         D           150.00   0.16   0.00   1.00    2.54      1.500          1.099
            7     77       0.15 AUA                B          1520.00   0.16   0.17   1.00    2.82    165.800        121.506
            7     78       0.01 URBAN LAND         D           150.00   0.16   0.00   1.00    0.07      1.500          1.099
            7     79       0.01 URBAN LAND         D           150.00   0.16   0.00   1.00    0.21      1.500          1.099
            7     80       0.85 URBAN LAND         D           150.00   0.16   0.00   1.00    1.76      1.500          1.099
            7     81       0.01 FAGASA             C           840.00   0.16   0.10   1.00    0.10     97.200         71.232
            7     82       0.02 FAGASA             C           840.00   0.16   0.10   1.00    0.28     97.200         71.232
            7     83       2.04 FAGASA             C           840.00   0.16   0.10   1.00    5.01     97.200         71.232
            7     84       0.47 URBAN LAND         D           150.00   0.16   0.00   1.00    2.58      1.500          1.099
            7     85       0.01 FAGASA             C           840.00   0.16   0.10   1.00    0.28     97.200         71.232
            7     86       0.09 FAGASA             C           840.00   0.16   0.10   1.00    2.92     97.200         71.232
            7     87       0.12 URBAN LAND         D           150.00   0.16   0.00   1.00    2.65      1.500          1.099
            8     88       0.13 FAGASA             C           840.00   0.16   0.10   1.00    3.54     97.200         71.232
            8     89       0.29 URBAN LAND         D           150.00   0.16   0.00   1.00    0.31      1.500          1.099
            8     90       1.35 URBAN LAND         D           150.00   0.16   0.00   1.00    2.34      1.500          1.099
            8     91       0.10 URBAN LAND         D           150.00   0.16   0.00   1.00    0.38      1.500          1.099
            8     92       0.29 URBAN LAND         D           150.00   0.16   0.00   1.00    2.01      1.500          1.099
            8     93       0.01 FAGASA             C           840.00   0.16   0.10   1.00    2.87     97.200         71.232
            8     94       0.01 FAGASA             C           840.00   0.16   0.10   1.00    0.07     97.200         71.232
            8     95      21.13 FAGASA             C           840.00   0.16   0.10   1.00   10.17     97.200         71.232
            8     96       0.01 URBAN LAND         D           150.00   0.16   0.00   1.00    0.15      1.500          1.099
            8     97       0.44 URBAN LAND         D           150.00   0.16   0.00   1.00    0.33      1.500          1.099
            8     98       2.71 URBAN LAND         D           150.00   0.16   0.00   1.00    2.69      1.500          1.099
            8     99       0.55 FAGASA             C           840.00   0.16   0.10   1.00    3.42     97.200         71.232
            8    100       0.02 URBAN LAND         D           100.00   0.16   0.00   1.00    2.42      1.500          1.099
            9    101       0.02 FAGASA             C           840.00   0.16   0.10   1.00    8.62     97.200         71.232
            9    102       0.01 URBAN LAND         D           150.00   0.16   0.00   1.00    0.40      1.500          1.099
            9    103       0.19 URBAN LAND         D           150.00   0.16   0.00   1.00    1.00      1.500          1.099
            9    104       0.26 FAGASA             C           840.00   0.16   0.10   1.00    2.12     97.200         71.232
            9    105       0.13 URBAN LAND         D           150.00   0.16   0.00   1.00    0.89      1.500          1.099
            9    106       0.45 FAGASA             C           840.00   0.16   0.10   1.00    4.82     97.200         71.232
            9    107       0.02 FAGASA             C           840.00   0.16   0.10   1.00    2.01     97.200         71.232
            9    108       0.02 URBAN LAND         D           150.00   0.16   0.00   1.00    0.90      1.500          1.099

         HRU Input Summary Table 3:
          Sub   HRU   Area(ha) Urban Irrig DrainTiles Pothole Pstcide Biomix Septic
            1      1       2.91                                          0.20 x
            1      2       7.82                                          0.20 x
            1      3       2.40                                          0.20 x
            1      4       0.07                                          0.20 x
            1      5       1.28                                          0.20 x
            1      6       0.47                                          0.20 x
            1      7       0.01                                          0.20 x
            2      8       0.52                                          0.20 x
            2      9       0.42                                          0.20 x
            2     10       0.36                                          0.20 x
            2     11       0.36                                          0.20 x
            2     12       0.03                                          0.20 x
            2     13       0.17                                          0.20 x
            2     14       0.07                                          0.20 x
            2     15       0.06                                          0.20 x
            2     16       0.09                                          0.20 x
            2     17       0.01                                          0.20 x
            2     18       4.85                                          0.20 x
            2     19       0.01                                          0.20 x
            2     20       0.04                                          0.20 x
            2     21       1.94                                          0.20 x
            2     22      11.31                                          0.20 x
            2     23       0.25                                          0.20 x
            2     24       0.09                                          0.20 x
            2     25       0.16                                          0.20 x
            2     26       0.24                                          0.20 x
            3     27       0.27                                          0.20 x
            3     28       0.60                                          0.20 x
            3     29       0.30                                          0.20 x
            3     30       0.01                                          0.20 x
            3     31      12.78                                          0.20 x
            3     32       0.01                                          0.20 x
            3     33       0.51                                          0.20 x
            3     34       0.15                                          0.20 x
            3     35       0.35                                          0.20 x
            3     36       0.13                                          0.20 x
            3     37       0.02                                          0.20 x
            3     38       0.22                                          0.20 x
            3     39       0.01                                          0.20 x
            4     40       0.75                                          0.20 x
            4     41       1.02                                          0.20 x
            4     42       0.03                                          0.20 x
            4     43       0.18                                          0.20 x
            4     44       0.31                                          0.20 x
            4     45       0.17                                          0.20 x
            4     46       0.39                                          0.20 x
            4     47       0.13                                          0.20 x
            4     48       0.03                                          0.20 x
            4     49       0.10                                          0.20 x
            4     50       2.24                                          0.20 x
            4     51       0.03                                          0.20 x
            4     52       0.01                                          0.20 x
            4     53      61.97                                          0.20 x
            4     54       0.55                                          0.20 x
            4     55       0.17                                          0.20 x
            5     56       0.04                                          0.20 x
            5     57       0.06                                          0.20 x
            5     58       0.01                                          0.20 x
            5     59       5.14                                          0.20 x
            5     60       0.14                                          0.20 x
            5     61       0.01                                          0.20 x
            5     62      46.33                                          0.20 x
            5     63       0.08                                          0.20 x
            5     64       0.01                                          0.20 x
            5     65       1.32                                          0.20 x
            5     66       0.02                                          0.20 x
            5     67       0.22                                          0.20 x
            6     68       0.24                                          0.20 x
            6     69       0.53                                          0.20 x
            6     70       0.01                                          0.20 x
            6     71       0.55                                          0.20 x
            6     72       0.01                                          0.20 x
            6     73       0.70                                          0.20 x
            6     74       0.21                                          0.20 x
            6     75       0.06                                          0.20 x
            6     76       0.06                                          0.20 x
            7     77       0.15                                          0.20 x
            7     78       0.01                                          0.20 x
            7     79       0.01                                          0.20 x
            7     80       0.85                                          0.20 x
            7     81       0.01                                          0.20 x
            7     82       0.02                                          0.20 x
            7     83       2.04                                          0.20 x
            7     84       0.47                                          0.20 x
            7     85       0.01                                          0.20 x
            7     86       0.09                                          0.20 x
            7     87       0.12                                          0.20 x
            8     88       0.13                                          0.20 x
            8     89       0.29                                          0.20 x
            8     90       1.35                                          0.20 x
            8     91       0.10                                          0.20 x
            8     92       0.29                                          0.20 x
            8     93       0.01                                          0.20 x
            8     94       0.01                                          0.20 x
            8     95      21.13                                          0.20 x
            8     96       0.01                                          0.20 x
            8     97       0.44                                          0.20 x
            8     98       2.71                                          0.20 x
            8     99       0.55                                          0.20 x
            8    100       0.02                                          0.20 x
            9    101       0.02                                          0.20 x
            9    102       0.01                                          0.20 x
            9    103       0.19                                          0.20 x
            9    104       0.26                                          0.20 x
            9    105       0.13                                          0.20 x
            9    106       0.45                                          0.20 x
            9    107       0.02                                          0.20 x
            9    108       0.02                                          0.20 x

         HRU Input Summary Table 4 (Groundwater):
          Sub   HRU   Area(ha) GWdelay(days), GWalpha(days) GWQmin(mm) GWrevap Revapmin(mm) Deepfr NO3(ppm) SolP(ppm)
            1      1       2.91        31.000         0.048   1000.000   0.020      750.000  0.050    0.000     0.000
            1      2       7.82        31.000         0.048   1000.000   0.020      750.000  0.050    0.000     0.000
            1      3       2.40        31.000         0.048   1000.000   0.020      750.000  0.050    0.000     0.000
            1      4       0.07        31.000         0.048   1000.000   0.020      750.000  0.050    0.000     0.000
            1      5       1.28        31.000         0.048   1000.000   0.020      750.000  0.050    0.000     0.000
            1      6       0.47        31.000         0.048   1000.000   0.020      750.000  0.050    0.000     0.000
            1      7       0.01        31.000         0.048   1000.000   0.020      750.000  0.050    0.000     0.000
            2      8       0.52        31.000         0.048   1000.000   0.020      750.000  0.050    0.000     0.000
            2      9       0.42        31.000         0.048   1000.000   0.020      750.000  0.050    0.000     0.000
            2     10       0.36        31.000         0.048   1000.000   0.020      750.000  0.050    0.000     0.000
            2     11       0.36        31.000         0.048   1000.000   0.020      750.000  0.050    0.000     0.000
            2     12       0.03        31.000         0.048   1000.000   0.020      750.000  0.050    0.000     0.000
            2     13       0.17        31.000         0.048   1000.000   0.020      750.000  0.050    0.000     0.000
            2     14       0.07        31.000         0.048   1000.000   0.020      750.000  0.050    0.000     0.000
            2     15       0.06        31.000         0.048   1000.000   0.020      750.000  0.050    0.000     0.000
            2     16       0.09        31.000         0.048   1000.000   0.020      750.000  0.050    0.000     0.000
            2     17       0.01        31.000         0.048   1000.000   0.020      750.000  0.050    0.000     0.000
            2     18       4.85        31.000         0.048   1000.000   0.020      750.000  0.050    0.000     0.000
            2     19       0.01        31.000         0.048   1000.000   0.020      750.000  0.050    0.000     0.000
            2     20       0.04        31.000         0.048   1000.000   0.020      750.000  0.050    0.000     0.000
            2     21       1.94        31.000         0.048   1000.000   0.020      750.000  0.050    0.000     0.000
            2     22      11.31        31.000         0.048   1000.000   0.020      750.000  0.050    0.000     0.000
            2     23       0.25        31.000         0.048   1000.000   0.020      750.000  0.050    0.000     0.000
            2     24       0.09        31.000         0.048   1000.000   0.020      750.000  0.050    0.000     0.000
            2     25       0.16        31.000         0.048   1000.000   0.020      750.000  0.050    0.000     0.000
            2     26       0.24        31.000         0.048   1000.000   0.020      750.000  0.050    0.000     0.000
            3     27       0.27        31.000         0.048   1000.000   0.020      750.000  0.050    0.000     0.000
            3     28       0.60        31.000         0.048   1000.000   0.020      750.000  0.050    0.000     0.000
            3     29       0.30        31.000         0.048   1000.000   0.020      750.000  0.050    0.000     0.000
            3     30       0.01        31.000         0.048   1000.000   0.020      750.000  0.050    0.000     0.000
            3     31      12.78        31.000         0.048   1000.000   0.020      750.000  0.050    0.000     0.000
            3     32       0.01        31.000         0.048   1000.000   0.020      750.000  0.050    0.000     0.000
            3     33       0.51        31.000         0.048   1000.000   0.020      750.000  0.050    0.000     0.000
            3     34       0.15        31.000         0.048   1000.000   0.020      750.000  0.050    0.000     0.000
            3     35       0.35        31.000         0.048   1000.000   0.020      750.000  0.050    0.000     0.000
            3     36       0.13        31.000         0.048   1000.000   0.020      750.000  0.050    0.000     0.000
            3     37       0.02        31.000         0.048   1000.000   0.020      750.000  0.050    0.000     0.000
            3     38       0.22        31.000         0.048   1000.000   0.020      750.000  0.050    0.000     0.000
            3     39       0.01        31.000         0.048   1000.000   0.020      750.000  0.050    0.000     0.000
            4     40       0.75        31.000         0.048   1000.000   0.020      750.000  0.050    0.000     0.000
            4     41       1.02        31.000         0.048   1000.000   0.020      750.000  0.050    0.000     0.000
            4     42       0.03        31.000         0.048   1000.000   0.020      750.000  0.050    0.000     0.000
            4     43       0.18        31.000         0.048   1000.000   0.020      750.000  0.050    0.000     0.000
            4     44       0.31        31.000         0.048   1000.000   0.020      750.000  0.050    0.000     0.000
            4     45       0.17        31.000         0.048   1000.000   0.020      750.000  0.050    0.000     0.000
            4     46       0.39        31.000         0.048   1000.000   0.020      750.000  0.050    0.000     0.000
            4     47       0.13        31.000         0.048   1000.000   0.020      750.000  0.050    0.000     0.000
            4     48       0.03        31.000         0.048   1000.000   0.020      750.000  0.050    0.000     0.000
            4     49       0.10        31.000         0.048   1000.000   0.020      750.000  0.050    0.000     0.000
            4     50       2.24        31.000         0.048   1000.000   0.020      750.000  0.050    0.000     0.000
            4     51       0.03        31.000         0.048   1000.000   0.020      750.000  0.050    0.000     0.000
            4     52       0.01        31.000         0.048   1000.000   0.020      750.000  0.050    0.000     0.000
            4     53      61.97        31.000         0.048   1000.000   0.020      750.000  0.050    0.000     0.000
            4     54       0.55        31.000         0.048   1000.000   0.020      750.000  0.050    0.000     0.000
            4     55       0.17        31.000         0.048   1000.000   0.020      750.000  0.050    0.000     0.000
            5     56       0.04        31.000         0.048   1000.000   0.020      750.000  0.050    0.000     0.000
            5     57       0.06        31.000         0.048   1000.000   0.020      750.000  0.050    0.000     0.000
            5     58       0.01        31.000         0.048   1000.000   0.020      750.000  0.050    0.000     0.000
            5     59       5.14        31.000         0.048   1000.000   0.020      750.000  0.050    0.000     0.000
            5     60       0.14        31.000         0.048   1000.000   0.020      750.000  0.050    0.000     0.000
            5     61       0.01        31.000         0.048   1000.000   0.020      750.000  0.050    0.000     0.000
            5     62      46.33        31.000         0.048   1000.000   0.020      750.000  0.050    0.000     0.000
            5     63       0.08        31.000         0.048   1000.000   0.020      750.000  0.050    0.000     0.000
            5     64       0.01        31.000         0.048   1000.000   0.020      750.000  0.050    0.000     0.000
            5     65       1.32        31.000         0.048   1000.000   0.020      750.000  0.050    0.000     0.000
            5     66       0.02        31.000         0.048   1000.000   0.020      750.000  0.050    0.000     0.000
            5     67       0.22        31.000         0.048   1000.000   0.020      750.000  0.050    0.000     0.000
            6     68       0.24        31.000         0.048   1000.000   0.020      750.000  0.050    0.000     0.000
            6     69       0.53        31.000         0.048   1000.000   0.020      750.000  0.050    0.000     0.000
            6     70       0.01        31.000         0.048   1000.000   0.020      750.000  0.050    0.000     0.000
            6     71       0.55        31.000         0.048   1000.000   0.020      750.000  0.050    0.000     0.000
            6     72       0.01        31.000         0.048   1000.000   0.020      750.000  0.050    0.000     0.000
            6     73       0.70        31.000         0.048   1000.000   0.020      750.000  0.050    0.000     0.000
            6     74       0.21        31.000         0.048   1000.000   0.020      750.000  0.050    0.000     0.000
            6     75       0.06        31.000         0.048   1000.000   0.020      750.000  0.050    0.000     0.000
            6     76       0.06        31.000         0.048   1000.000   0.020      750.000  0.050    0.000     0.000
            7     77       0.15        31.000         0.048   1000.000   0.020      750.000  0.050    0.000     0.000
            7     78       0.01        31.000         0.048   1000.000   0.020      750.000  0.050    0.000     0.000
            7     79       0.01        31.000         0.048   1000.000   0.020      750.000  0.050    0.000     0.000
            7     80       0.85        31.000         0.048   1000.000   0.020      750.000  0.050    0.000     0.000
            7     81       0.01        31.000         0.048   1000.000   0.020      750.000  0.050    0.000     0.000
            7     82       0.02        31.000         0.048   1000.000   0.020      750.000  0.050    0.000     0.000
            7     83       2.04        31.000         0.048   1000.000   0.020      750.000  0.050    0.000     0.000
            7     84       0.47        31.000         0.048   1000.000   0.020      750.000  0.050    0.000     0.000
            7     85       0.01        31.000         0.048   1000.000   0.020      750.000  0.050    0.000     0.000
            7     86       0.09        31.000         0.048   1000.000   0.020      750.000  0.050    0.000     0.000
            7     87       0.12        31.000         0.048   1000.000   0.020      750.000  0.050    0.000     0.000
            8     88       0.13        31.000         0.048   1000.000   0.020      750.000  0.050    0.000     0.000
            8     89       0.29        31.000         0.048   1000.000   0.020      750.000  0.050    0.000     0.000
            8     90       1.35        31.000         0.048   1000.000   0.020      750.000  0.050    0.000     0.000
            8     91       0.10        31.000         0.048   1000.000   0.020      750.000  0.050    0.000     0.000
            8     92       0.29        31.000         0.048   1000.000   0.020      750.000  0.050    0.000     0.000
            8     93       0.01        31.000         0.048   1000.000   0.020      750.000  0.050    0.000     0.000
            8     94       0.01        31.000         0.048   1000.000   0.020      750.000  0.050    0.000     0.000
            8     95      21.13        31.000         0.048   1000.000   0.020      750.000  0.050    0.000     0.000
            8     96       0.01        31.000         0.048   1000.000   0.020      750.000  0.050    0.000     0.000
            8     97       0.44        31.000         0.048   1000.000   0.020      750.000  0.050    0.000     0.000
            8     98       2.71        31.000         0.048   1000.000   0.020      750.000  0.050    0.000     0.000
            8     99       0.55        31.000         0.048   1000.000   0.020      750.000  0.050    0.000     0.000
            8    100       0.02        31.000         0.048   1000.000   0.020      750.000  0.050    0.000     0.000
            9    101       0.02        31.000         0.048   1000.000   0.020      750.000  0.050    0.000     0.000
            9    102       0.01        31.000         0.048   1000.000   0.020      750.000  0.050    0.000     0.000
            9    103       0.19        31.000         0.048   1000.000   0.020      750.000  0.050    0.000     0.000
            9    104       0.26        31.000         0.048   1000.000   0.020      750.000  0.050    0.000     0.000
            9    105       0.13        31.000         0.048   1000.000   0.020      750.000  0.050    0.000     0.000
            9    106       0.45        31.000         0.048   1000.000   0.020      750.000  0.050    0.000     0.000
            9    107       0.02        31.000         0.048   1000.000   0.020      750.000  0.050    0.000     0.000
            9    108       0.02        31.000         0.048   1000.000   0.020      750.000  0.050    0.000     0.000

         Tributary/Main Channel Characteristics
              |--------------Tributary--------------------|---------------------Main---------------------------|
          Sub  Length(km) Slope Width(m) Cond(mm/hr)     N Length(km) Slope Width(m) Depth(m) Cond(mm/hr)     N
            1        0.94 0.297     0.41      0.0000 0.014       0.05 0.039     0.41     0.06      0.0000 0.014
            2        0.86 0.324     0.51      0.0000 0.014       0.08 0.075     0.51     0.07      0.0000 0.014
            3        1.28 0.317     0.42      0.0000 0.014       0.03 0.181     0.42     0.06      0.0000 0.014
            4        1.51 0.269     1.02      0.0000 0.014       0.84 0.103     1.02     0.11      0.0000 0.014
            5        1.50 0.274     0.88      0.0000 0.014       0.98 0.186     0.88     0.10      0.0000 0.014
            6        0.73 0.236     0.14      0.0000 0.014       0.11 0.055     0.73     0.09      0.0000 0.014
            7        0.43 0.188     0.18      0.0000 0.014       0.27 0.088     1.26     0.13      0.0000 0.014
            8        1.11 0.283     0.59      0.0000 0.014       0.27 0.025     1.56     0.15      0.0000 0.014
            9        0.27 0.191     0.09      0.0000 0.014       0.10 0.052     2.00     0.17      0.0000 0.014
