1
    SWAT Dec 23 2016    VER 2016/Rev 664                                                                 0/ 0/   0      0: 0: 0

    General Input/Output section (file.cio):                                        
    2/12/2020 14:39:08 QSWAT Workflow v1.5.2                                        
                                                                                    
         Number of years in run:    5
         Area of watershed:        2.071 km2
1
    SWAT Dec 23 2016    VER 2016/Rev 664                                            

    General Input/Output section (file.cio):                                        
    2/12/2020 14:39:08 QSWAT Workflow v1.5.2                                        
                                                                                    
Annual Summary for Watershed in year    1 of simulation

UNIT                                    PERCO    TILE                           WATER     SED     NO3     NO3     NO3     NO3        N       P       P
TIME     PREC    SURQ    LATQ     GWQ    LATE       Q     SW       ET     PET   YIELD   YIELD    SURQ    LATQ    PERC    CROP  ORGANIC SOLUBLE ORGANIC TILENO3
         (mm)    (mm)    (mm)    (mm)    (mm)    (mm)    (mm)    (mm)    (mm)    (mm)   (t/ha)  ------------------(kg nutrient/ha)-------------------- (kg/ha)
1
    SWAT Dec 23 2016    VER 2016/Rev 664                                            

    General Input/Output section (file.cio):                                        
    2/12/2020 14:39:08 QSWAT Workflow v1.5.2                                        
                                                                                    
Annual Summary for Watershed in year    2 of simulation

UNIT                                    PERCO    TILE                           WATER     SED     NO3     NO3     NO3     NO3        N       P       P
TIME     PREC    SURQ    LATQ     GWQ    LATE       Q     SW       ET     PET   YIELD   YIELD    SURQ    LATQ    PERC    CROP  ORGANIC SOLUBLE ORGANIC TILENO3
         (mm)    (mm)    (mm)    (mm)    (mm)    (mm)    (mm)    (mm)    (mm)    (mm)   (t/ha)  ------------------(kg nutrient/ha)-------------------- (kg/ha)
1
    SWAT Dec 23 2016    VER 2016/Rev 664                                            

    General Input/Output section (file.cio):                                        
    2/12/2020 14:39:08 QSWAT Workflow v1.5.2                                        
                                                                                    
Annual Summary for Watershed in year    3 of simulation

UNIT                                    PERCO    TILE                           WATER     SED     NO3     NO3     NO3     NO3        N       P       P
TIME     PREC    SURQ    LATQ     GWQ    LATE       Q     SW       ET     PET   YIELD   YIELD    SURQ    LATQ    PERC    CROP  ORGANIC SOLUBLE ORGANIC TILENO3
         (mm)    (mm)    (mm)    (mm)    (mm)    (mm)    (mm)    (mm)    (mm)    (mm)   (t/ha)  ------------------(kg nutrient/ha)-------------------- (kg/ha)
1
    SWAT Dec 23 2016    VER 2016/Rev 664                                            

    General Input/Output section (file.cio):                                        
    2/12/2020 14:39:08 QSWAT Workflow v1.5.2                                        
                                                                                    
Annual Summary for Watershed in year    4 of simulation

UNIT                                    PERCO    TILE                           WATER     SED     NO3     NO3     NO3     NO3        N       P       P
TIME     PREC    SURQ    LATQ     GWQ    LATE       Q     SW       ET     PET   YIELD   YIELD    SURQ    LATQ    PERC    CROP  ORGANIC SOLUBLE ORGANIC TILENO3
         (mm)    (mm)    (mm)    (mm)    (mm)    (mm)    (mm)    (mm)    (mm)    (mm)   (t/ha)  ------------------(kg nutrient/ha)-------------------- (kg/ha)
    1   26.90    5.61    9.23    0.16    0.35    0.00   89.02    2.30    2.33   15.00    0.40    0.00    0.01    0.01    0.00     0.71    0.00    0.09    0.00
    2    1.00    0.00    3.22    0.16    0.00    0.00   86.88    3.14    3.90    3.39    0.00    0.00    0.00    0.00    0.00     0.00    0.00    0.00    0.00
    3   15.50    1.59    6.61    0.16    0.30    0.00   88.07    3.99    4.72    8.36    0.06    0.00    0.01    0.01    0.00     0.11    0.00    0.01    0.00
    4    6.40    0.25    3.92    0.15    0.05    0.00   87.05    4.64    5.74    4.34    0.00    0.00    0.00    0.00    0.00     0.00    0.00    0.00    0.00
    5   25.70    5.47   10.28    0.15    0.58    0.00   88.32    4.66    5.74   15.91    0.70    0.00    0.02    0.01    0.00     1.07    0.00    0.13    0.00
    6    1.30    0.00    3.66    0.15    0.00    0.00   85.74    3.77    5.77    3.83    0.00    0.00    0.01    0.00    0.00     0.00    0.00    0.00    0.00
    7    0.00    0.00    1.29    0.15    0.00    0.00   83.39    2.36    5.75    1.45    0.00    0.00    0.00    0.00    0.00     0.00    0.00    0.00    0.00
    8    0.00    0.00    0.46    0.15    0.00    0.00   81.56    1.83    5.97    0.62    0.00    0.00    0.00    0.00    0.00     0.00    0.00    0.00    0.00
    9   70.90   31.43   15.20    0.15    1.03    0.00   93.05    3.72    4.27   46.78    4.22    0.00    0.02    0.02    0.00     6.89    0.00    0.84    0.00
   10   49.80   21.33   19.63    0.15    1.41    0.00   94.37    3.64    4.13   41.12    0.00    0.00    0.04    0.05    0.00     5.01    0.00    0.61    0.00
   11   53.10   24.11   22.07    0.16    1.92    0.00   95.82    2.15    2.17   46.34    3.75    0.00    0.06    0.10    0.00     4.65    0.00    0.57    0.00
   12   38.90   14.22   21.09    0.16    1.78    0.00   96.23    1.86    1.88   35.49    0.00    0.00    0.06    0.10    0.00     1.94    0.00    0.24    0.00
   13   15.00    1.89   14.08    0.17    0.83    0.00   96.32    1.89    1.90   16.16    0.04    0.00    0.04    0.05    0.00     0.05    0.00    0.01    0.00
   14   23.40    5.21   14.63    0.17    1.25    0.00   96.24    2.09    2.11   20.02    0.24    0.00    0.04    0.07    0.00     0.36    0.00    0.04    0.00
   15   17.50    2.71   12.70    0.17    0.94    0.00   96.00    2.42    2.45   15.60    0.00    0.00    0.03    0.05    0.00     0.24    0.00    0.03    0.00
   16    8.40    0.57    7.72    0.18    0.35    0.00   95.71    2.73    2.75    8.48    0.00    0.00    0.02    0.02    0.00     0.00    0.00    0.00    0.00
   17   32.30    9.96   14.45    0.18    1.47    0.00   95.63    2.87    2.95   24.59    0.61    0.00    0.04    0.08    0.00     0.79    0.00    0.10    0.00
   18    2.50    0.07    5.45    0.19    0.01    0.00   94.95    2.48    2.54    5.73    0.00    0.00    0.01    0.00    0.00     0.00    0.00    0.00    0.00
   19   10.70    0.85    5.88    0.19    0.30    0.00   96.19    2.20    2.22    6.93    0.01    0.00    0.01    0.01    0.00     0.01    0.00    0.00    0.00
   20    8.60    0.59    5.55    0.19    0.40    0.00   94.51    3.93    4.57    6.34    0.00    0.00    0.01    0.02    0.00     0.00    0.00    0.00    0.00
   21    1.80    0.03    2.15    0.20    0.01    0.00   92.60    3.35    4.44    2.39    0.00    0.00    0.00    0.00    0.00     0.00    0.00    0.00    0.00
   22    8.10    0.54    2.76    0.20    0.04    0.00   93.28    3.77    4.37    3.50    0.00    0.00    0.00    0.00    0.00     0.00    0.00    0.00    0.00
   23    0.00    0.00    0.97    0.20    0.01    0.00   90.94    2.33    4.18    1.18    0.00    0.00    0.00    0.00    0.00     0.00    0.00    0.00    0.00
   24    0.00    0.00    0.34    0.20    0.01    0.00   88.93    2.00    4.75    0.56    0.00    0.00    0.00    0.00    0.00     0.00    0.00    0.00    0.00
   25    6.60    0.39    1.59    0.20    0.01    0.00   89.22    3.67    5.38    2.19    0.00    0.00    0.00    0.00    0.00     0.00    0.00    0.00    0.00
   26    0.00    0.00    0.55    0.21    0.01    0.00   87.06    2.15    4.99    0.77    0.00    0.00    0.00    0.00    0.00     0.00    0.00    0.00    0.00
   27    8.40    0.55    2.17    0.21    0.01    0.00   88.26    3.61    5.01    2.93    0.00    0.00    0.00    0.00    0.00     0.00    0.00    0.00    0.00
   28   28.20    6.96    9.51    0.21    0.51    0.00   91.62    3.87    4.49   16.67    0.52    0.00    0.01    0.01    0.00     0.62    0.00    0.08    0.00
   29   70.90   37.88   20.32    0.21    1.89    0.00   93.43    3.06    3.25   58.40    2.84    0.00    0.04    0.07    0.00     4.05    0.00    0.50    0.00
   30    6.60    0.39    9.10    0.21    0.10    0.00   94.87    1.57    1.58    9.74    0.00    0.00    0.01    0.00    0.00     0.00    0.00    0.00    0.00
   31   38.10   13.77   16.67    0.21    1.81    0.00   95.51    1.11    1.12   30.65    1.47    0.00    0.04    0.09    0.00     1.48    0.00    0.18    0.00
    1  576.60  186.37  263.24    5.57   17.38    0.00   95.51   89.15  117.41  455.45   14.87    0.01    0.55    0.78    0.00    27.99    0.02    3.42    0.00
   32    2.50    0.07    6.59    0.22    0.08    0.00   93.68    3.00    3.15    6.90    0.00    0.00    0.02    0.00    0.00     0.00    0.00    0.00    0.00
   33    5.80    0.32    3.96    0.22    0.08    0.00   95.72    0.84    0.84    4.51    0.00    0.00    0.01    0.00    0.00     0.00    0.00    0.00    0.00
   34    8.90    0.61    5.73    0.22    0.52    0.00   93.32    3.49    3.89    6.58    0.00    0.00    0.01    0.03    0.00     0.00    0.00    0.00    0.00
   35   24.10    5.42   11.23    0.22    1.03    0.00   93.45    3.31    3.61   16.88    0.63    0.00    0.03    0.05    0.00     0.56    0.00    0.07    0.00
   36   21.30    4.15   12.33    0.22    0.93    0.00   94.29    2.43    2.45   16.71    0.00    0.00    0.03    0.05    0.00     0.28    0.00    0.03    0.00
   37    3.30    0.12    4.94    0.23    0.02    0.00   94.69    1.77    1.79    5.30    0.00    0.00    0.01    0.00    0.00     0.00    0.00    0.00    0.00
   38    7.90    0.52    4.95    0.23    0.36    0.00   92.92    3.85    4.19    5.71    0.00    0.00    0.01    0.02    0.01     0.00    0.00    0.00    0.00
   39   70.60   37.98   18.96    0.23    2.24    0.00   94.24    2.47    2.47   57.15    2.87    0.03    0.04    0.10    0.20     3.09    0.00    0.38    0.00
   40    0.30    0.00    6.62    0.23    0.01    0.00   91.96    2.57    3.56    6.89    0.00    0.00    0.01    0.00    0.30     0.00    0.00    0.00    0.00
   41    0.00    0.00    2.33    0.24    0.01    0.00   90.42    1.54    2.40    2.58    0.00    0.00    0.00    0.00    0.19     0.00    0.00    0.00    0.00
   42    0.00    0.00    0.83    0.24    0.01    0.00   88.74    1.68    2.92    1.08    0.00    0.00    0.00    0.00    0.26     0.00    0.00    0.00    0.00
   43    0.00    0.00    0.30    0.24    0.01    0.00   86.43    2.31    5.21    0.55    0.00    0.00    0.00    0.00    0.25     0.00    0.00    0.00    0.00
   44    0.00    0.00    0.11    0.24    0.01    0.00   84.21    2.22    4.79    0.36    0.00    0.00    0.00    0.00    0.47     0.00    0.00    0.00    0.00
   45    0.00    0.00    0.04    0.24    0.00    0.00   82.12    2.09    4.36    0.30    0.00    0.00    0.00    0.00    0.46     0.00    0.00    0.00    0.00
   46    0.00    0.00    0.02    0.24    0.00    0.00   80.19    1.93    3.94    0.27    0.00    0.00    0.00    0.00    0.36     0.00    0.00    0.00    0.00
   47    0.00    0.00    0.01    0.24    0.00    0.00   77.65    2.55    4.89    0.26    0.00    0.00    0.00    0.00    0.45     0.00    0.00    0.00    0.00
   48    0.00    0.00    0.00    0.24    0.00    0.00   75.97    1.67    2.55    0.25    0.00    0.00    0.00    0.00    0.30     0.00    0.00    0.00    0.00
   49    0.00    0.00    0.00    0.24    0.00    0.00   73.68    2.29    3.55    0.25    0.00    0.00    0.00    0.00    0.45     0.00    0.00    0.00    0.00
   50    0.00    0.00    0.00    0.24    0.00    0.00   71.46    2.22    3.75    0.25    0.00    0.00    0.00    0.00    0.22     0.00    0.00    0.00    0.00
   51    0.00    0.00    0.00    0.24    0.00    0.00   69.33    2.14    3.90    0.25    0.00    0.00    0.00    0.00    0.31     0.00    0.00    0.00    0.00
   52    0.00    0.00    0.00    0.23    0.00    0.00   66.73    2.61    4.82    0.25    0.00    0.00    0.00    0.00    0.33     0.00    0.00    0.00    0.00
   53    0.00    0.00    0.00    0.23    0.00    0.00   64.35    2.38    4.38    0.24    0.00    0.00    0.00    0.00    0.32     0.00    0.00    0.00    0.00
   54    0.00    0.00    0.00    0.23    0.00    0.00   61.78    2.58    4.90    0.24    0.00    0.00    0.00    0.00    0.28     0.00    0.00    0.00    0.00
   55    0.00    0.00    0.00    0.23    0.00    0.00   59.39    2.40    4.11    0.24    0.00    0.00    0.00    0.00    0.30     0.00    0.00    0.00    0.00
   56    0.00    0.00    0.00    0.22    0.00    0.00   56.69    2.70    5.15    0.24    0.00    0.00    0.00    0.00    0.20     0.00    0.00    0.00    0.00
   57    0.00    0.00    0.00    0.22    0.00    0.00   53.92    2.78    5.20    0.23    0.00    0.00    0.00    0.00    0.24     0.00    0.00    0.00    0.00
   58    0.00    0.00    0.00    0.22    0.00    0.00   51.53    2.40    4.79    0.23    0.00    0.00    0.00    0.00    0.18     0.00    0.00    0.00    0.00
   59    0.00    0.00    0.00    0.22    0.00    0.00   49.08    2.46    5.27    0.23    0.00    0.00    0.00    0.00    0.13     0.00    0.00    0.00    0.00
    2  144.70   49.19   78.96    6.44    5.33    0.00   49.08   66.66  106.85  134.94    3.50    0.03    0.17    0.25    6.22     3.93    0.00    0.48    0.00
   60    0.00    0.00    0.00    0.21    0.00    0.00   46.64    2.45    4.20    0.23    0.00    0.00    0.00    0.00    0.14     0.00    0.00    0.00    0.00
   61    0.00    0.00    0.00    0.21    0.00    0.00   44.33    2.32    3.85    0.22    0.00    0.00    0.00    0.00    0.03     0.00    0.00    0.00    0.00
   62    0.00    0.00    0.00    0.21    0.00    0.00   41.78    2.55    4.36    0.22    0.00    0.00    0.00    0.00    0.02     0.00    0.00    0.00    0.00
   63    0.00    0.00    0.00    0.20    0.00    0.00   39.57    2.22    3.41    0.22    0.00    0.00    0.00    0.00    0.06     0.00    0.00    0.00    0.00
   64    0.00    0.00    0.00    0.20    0.00    0.00   37.55    2.03    5.16    0.21    0.00    0.00    0.00    0.00    0.02     0.00    0.00    0.00    0.00
   65    0.00    0.00    0.00    0.20    0.00    0.00   36.31    1.24    3.46    0.21    0.00    0.00    0.00    0.00    0.12     0.00    0.00    0.00    0.00
   66    0.00    0.00    0.00    0.19    0.00    0.00   35.29    1.02    1.86    0.21    0.00    0.00    0.00    0.00    0.02     0.00    0.00    0.00    0.00
   67    0.00    0.00    0.00    0.19    0.00    0.00   34.54    0.75    1.12    0.20    0.00    0.00    0.00    0.00    0.01     0.00    0.00    0.00    0.00
   68    0.00    0.00    0.00    0.19    0.00    0.00   32.73    1.82    3.03    0.20    0.00    0.00    0.00    0.00    0.01     0.00    0.00    0.00    0.00
   69    0.00    0.00    0.00    0.18    0.00    0.00   30.55    2.18    4.38    0.20    0.00    0.00    0.00    0.00    0.01     0.00    0.00    0.00    0.00
   70    5.60    0.01    1.19    0.18    0.00    0.00   31.26    3.07    4.12    1.39    0.00    0.00    0.01    0.00    0.02     0.00    0.00    0.00    0.00
   71    0.00    0.00    0.41    0.18    0.00    0.00   28.65    2.62    4.32    0.60    0.00    0.00    0.00    0.00    0.05     0.00    0.00    0.00    0.00
   72    1.80    0.00    0.30    0.17    0.00    0.00   27.05    3.16    3.99    0.48    0.00    0.00    0.00    0.00    0.04     0.00    0.00    0.00    0.00
   73    0.00    0.00    0.10    0.17    0.00    0.00   24.89    2.17    3.78    0.29    0.00    0.00    0.00    0.00    0.04     0.00    0.00    0.00    0.00
   74    2.80    0.00    0.48    0.17    0.00    0.00   23.73    3.27    4.46    0.66    0.00    0.00    0.00    0.00    0.04     0.00    0.00    0.00    0.00
   75   14.20    0.08    3.77    0.16    0.00    0.00   28.36    3.96    4.56    4.02    0.00    0.00    0.00    0.00    0.12     0.00    0.00    0.00    0.00
   76    0.50    0.00    1.31    0.16    0.00    0.00   25.44    3.43    4.95    1.47    0.00    0.00    0.00    0.00    0.18     0.00    0.00    0.00    0.00
   77    0.00    0.00    0.45    0.15    0.00    0.00   22.89    2.55    3.51    0.62    0.00    0.00    0.00    0.00    0.19     0.00    0.00    0.00    0.00
   78    5.60    0.03    1.35    0.15    0.00    0.00   22.71    3.91    5.05    1.55    0.00    0.00    0.00    0.00    0.14     0.00    0.00    0.00    0.00
   79    6.40    0.07    1.92    0.14    0.00    0.00   23.66    3.16    3.73    2.15    0.00    0.00    0.00    0.00    0.20     0.00    0.00    0.00    0.00
   80   17.80    1.03    5.31    0.14    0.00    0.00   30.22    3.06    3.33    6.49    0.00    0.00    0.00    0.00    0.10     0.00    0.00    0.00    0.00
   81    2.00    0.01    2.13    0.14    0.00    0.00   28.02    3.76    4.37    2.29    0.00    0.00    0.00    0.00    0.12     0.00    0.00    0.00    0.00
   82   17.30    1.13    5.63    0.13    0.00    0.00   33.99    2.67    2.83    6.91    0.00    0.01    0.00    0.00    0.18     0.00    0.00    0.00    0.00
   83    0.00    0.00    1.96    0.13    0.00    0.00   31.83    2.17    2.72    2.10    0.00    0.00    0.00    0.00    0.09     0.00    0.00    0.00    0.00
   84    3.30    0.04    1.32    0.12    0.00    0.00   31.06    3.04    3.40    1.50    0.00    0.00    0.00    0.00    0.08     0.00    0.00    0.00    0.00
   85   11.70    0.63    3.89    0.12    0.00    0.00   32.41    4.45    4.72    4.65    0.00    0.00    0.00    0.00    0.09     0.00    0.00    0.00    0.00
   86    3.00    0.04    1.84    0.12    0.00    0.00   32.15    2.48    2.77    2.01    0.00    0.00    0.00    0.00    0.15     0.00    0.00    0.00    0.00
   87    1.00    0.00    0.68    0.11    0.00    0.00   30.11    2.98    3.44    0.81    0.00    0.00    0.00    0.00    0.07     0.00    0.00    0.00    0.00
   88    0.80    0.00    0.24    0.11    0.00    0.00   28.35    2.56    3.19    0.36    0.00    0.00    0.00    0.00    0.10     0.00    0.00    0.00    0.00
   89    0.00    0.00    0.09    0.11    0.00    0.00   26.18    2.18    2.99    0.21    0.00    0.00    0.00    0.00    0.09     0.00    0.00    0.00    0.00
   90    0.00    0.00    0.03    0.10    0.00    0.00   23.66    2.53    4.38    0.14    0.00    0.00    0.00    0.00    0.08     0.00    0.00    0.00    0.00
    3   93.80    3.07   34.42    4.94    0.02    0.00   23.66   81.73  115.44   42.80    0.01    0.01    0.02    0.00    2.60     0.01    0.00    0.00    0.00
   91    0.30    0.00    0.01    0.09    0.00    0.00   21.27    2.69    4.74    0.11    0.00    0.00    0.00    0.00    0.15     0.00    0.00    0.00    0.00
   92    0.30    0.00    0.00    0.08    0.00    0.00   20.25    1.33    3.42    0.10    0.00    0.00    0.00    0.00    0.15     0.00    0.00    0.00    0.00
   93    0.30    0.00    0.00    0.08    0.00    0.00   19.25    1.31    4.71    0.10    0.00    0.00    0.00    0.00    0.04     0.00    0.00    0.00    0.00
   94    2.50    0.00    0.38    0.08    0.00    0.00   19.04    2.13    4.20    0.47    0.00    0.00    0.00    0.00    0.05     0.00    0.00    0.00    0.00
   95    2.30    0.00    0.45    0.07    0.00    0.00   18.52    2.33    4.57    0.54    0.00    0.00    0.00    0.00    0.06     0.00    0.00    0.00    0.00
   96    4.30    0.00    1.00    0.06    0.00    0.00   18.42    3.10    5.23    1.08    0.00    0.00    0.00    0.00    0.06     0.00    0.00    0.00    0.00
   97    0.00    0.00    0.35    0.04    0.00    0.00   17.16    1.26    5.58    0.40    0.00    0.00    0.00    0.00    0.11     0.00    0.00    0.00    0.00
   98    0.00    0.00    0.12    0.04    0.00    0.00   16.35    0.81    4.32    0.17    0.00    0.00    0.00    0.00    0.04     0.00    0.00    0.00    0.00
   99    1.80    0.00    0.18    0.04    0.00    0.00   16.25    1.69    4.03    0.23    0.00    0.00    0.00    0.00    0.02     0.00    0.00    0.00    0.00
  100    0.00    0.00    0.06    0.04    0.00    0.00   15.45    0.81    4.44    0.11    0.00    0.00    0.00    0.00    0.03     0.00    0.00    0.00    0.00
  101   11.90    0.04    2.99    0.03    0.00    0.00   18.92    3.83    4.99    3.08    0.00    0.00    0.00    0.00    0.03     0.00    0.00    0.00    0.00
  102    1.80    0.00    1.21    0.03    0.00    0.00   17.61    2.84    3.71    1.26    0.00    0.00    0.00    0.00    0.12     0.00    0.00    0.00    0.00
  103    1.30    0.00    0.51    0.03    0.00    0.00   16.89    1.88    3.23    0.56    0.00    0.00    0.00    0.00    0.00     0.00    0.00    0.00    0.00
  104    2.80    0.00    0.73    0.03    0.00    0.00   17.09    1.76    2.73    0.77    0.00    0.00    0.00    0.00    0.00     0.00    0.00    0.00    0.00
  105    2.30    0.00    0.68    0.03    0.00    0.00   16.67    2.06    3.39    0.72    0.00    0.00    0.00    0.00    0.00     0.00    0.00    0.00    0.00
  106    0.00    0.00    0.24    0.03    0.00    0.00   16.20    0.47    1.46    0.28    0.00    0.00    0.00    0.00    0.00     0.00    0.00    0.00    0.00
  107    0.00    0.00    0.08    0.03    0.00    0.00   15.54    0.66    2.90    0.12    0.00    0.00    0.00    0.00    0.00     0.00    0.00    0.00    0.00
  108    0.00    0.00    0.03    0.03    0.00    0.00   15.23    0.31    1.18    0.07    0.00    0.00    0.00    0.00    0.00     0.00    0.00    0.00    0.00
  109    0.00    0.00    0.01    0.03    0.00    0.00   14.78    0.45    2.08    0.05    0.00    0.00    0.00    0.00    0.00     0.00    0.00    0.00    0.00
  110    0.30    0.00    0.00    0.03    0.00    0.00   14.60    0.49    2.25    0.04    0.00    0.00    0.00    0.00    0.00     0.00    0.00    0.00    0.00
  111    1.00    0.00    0.00    0.02    0.00    0.00   14.06    1.54    4.16    0.03    0.00    0.00    0.00    0.00    0.00     0.00    0.00    0.00    0.00
  112    1.30    0.00    0.05    0.02    0.00    0.00   13.92    1.36    3.44    0.08    0.00    0.00    0.00    0.00    0.00     0.00    0.00    0.00    0.00
  113   98.00   15.58   30.63    0.02    0.03    0.00   45.53    3.24    3.28   46.23    0.11    0.00    0.01    0.00    0.00     0.06    0.00    0.01    0.00
  114    0.80    0.00   10.61    0.02    0.02    0.00   44.61    1.69    1.88   10.65    0.00    0.00    0.00    0.00    0.00     0.00    0.00    0.00    0.00
  115    0.00    0.00    3.69    0.02    0.02    0.00   40.87    3.73    5.04    3.72    0.00    0.00    0.00    0.00    0.00     0.00    0.00    0.00    0.00
  116    0.50    0.00    1.29    0.02    0.02    0.00   38.24    3.11    4.80    1.32    0.00    0.00    0.00    0.00    0.00     0.00    0.00    0.00    0.00
  117    7.10    0.44    2.11    0.01    0.02    0.00   38.41    3.94    5.04    2.57    0.00    0.00    0.00    0.00    0.00     0.00    0.00    0.00    0.00
  118   24.90    2.28    8.85    0.01    0.03    0.00   45.56    2.96    4.24   11.14    0.01    0.00    0.00    0.00    0.00     0.00    0.00    0.00    0.00
  119    3.80    0.16    3.84    0.01    0.02    0.00   44.95    3.06    4.00    4.04    0.00    0.00    0.00    0.00    0.00     0.00    0.00    0.00    0.00
  120   69.30   19.54   25.27    0.01    0.15    0.00   54.89    2.88    3.39   44.80    0.04    0.00    0.02    0.00    0.00     0.02    0.00    0.00    0.00
    4  238.90   38.05   95.39    1.12    0.31    0.00   54.89   59.75  112.44  134.84    0.17    0.00    0.03    0.00    0.90     0.09    0.00    0.01    0.00
  121    4.60    0.22    9.85    0.02    0.04    0.00   54.99    2.59    2.88   10.13    0.00    0.00    0.01    0.00    0.00     0.00    0.00    0.00    0.00
  122    4.60    0.22    4.58    0.02    0.04    0.00   54.84    2.72    3.12    4.83    0.00    0.00    0.00    0.00    0.00     0.00    0.00    0.00    0.00
  123    4.60    0.22    2.72    0.02    0.04    0.00   54.56    2.90    3.42    2.97    0.00    0.00    0.00    0.00    0.00     0.00    0.00    0.00    0.00
  124    0.00    0.00    0.96    0.02    0.02    0.00   52.43    2.11    3.91    0.98    0.00    0.00    0.00    0.00    0.00     0.00    0.00    0.00    0.00
  125    0.00    0.00    0.34    0.01    0.02    0.00   50.38    2.04    5.00    0.36    0.00    0.00    0.00    0.00    0.00     0.00    0.00    0.00    0.00
  126    1.00    0.00    0.12    0.01    0.01    0.00   48.52    2.85    6.21    0.15    0.00    0.00    0.00    0.00    0.00     0.00    0.00    0.00    0.00
  127    2.00    0.04    0.30    0.01    0.01    0.00   47.41    2.68    5.44    0.36    0.00    0.00    0.00    0.00    0.00     0.00    0.00    0.00    0.00
  128    1.00    0.00    0.10    0.01    0.01    0.00   46.29    2.10    4.08    0.13    0.00    0.00    0.00    0.00    0.00     0.00    0.00    0.00    0.00
  129    0.00    0.00    0.04    0.01    0.01    0.00   44.84    1.45    4.94    0.06    0.00    0.00    0.00    0.00    0.00     0.00    0.00    0.00    0.00
  130    9.70    0.66    2.35    0.01    0.01    0.00   47.29    3.01    5.23    3.02    0.00    0.00    0.00    0.00    0.00     0.00    0.00    0.00    0.00
  131   33.50    4.50   13.31    0.01    0.33    0.00   54.82    1.92    2.08   17.82    0.01    0.00    0.02    0.00    0.00     0.00    0.00    0.00    0.00
  132    7.90    0.51    7.64    0.01    0.11    0.00   54.89    2.56    2.81    8.18    0.00    0.00    0.01    0.00    0.00     0.00    0.00    0.00    0.00
  133    1.80    0.03    2.87    0.01    0.01    0.00   53.63    2.71    3.35    2.93    0.00    0.00    0.00    0.00    0.00     0.00    0.00    0.00    0.00
  134    5.60    0.30    2.31    0.01    0.03    0.00   53.59    3.30    4.08    2.64    0.00    0.00    0.00    0.00    0.00     0.00    0.00    0.00    0.00
  135    0.50    0.00    0.81    0.01    0.01    0.00   51.51    2.58    4.28    0.84    0.00    0.00    0.00    0.00    0.00     0.00    0.00    0.00    0.00
  136    1.80    0.03    0.47    0.01    0.01    0.00   50.14    2.85    4.55    0.52    0.00    0.00    0.00    0.00    0.00     0.00    0.00    0.00    0.00
  137    0.00    0.00    0.17    0.01    0.01    0.00   48.42    1.72    4.55    0.19    0.00    0.00    0.00    0.00    0.00     0.00    0.00    0.00    0.00
  138    6.90    0.38    1.62    0.01    0.01    0.00   49.38    3.16    5.01    2.02    0.00    0.00    0.00    0.00    0.00     0.00    0.00    0.00    0.00
  139   11.90    0.85    4.01    0.01    0.06    0.00   51.86    3.20    3.94    4.88    0.00    0.00    0.00    0.00    0.00     0.00    0.00    0.00    0.00
  140    0.50    0.00    1.40    0.02    0.00    0.00   49.69    2.67    4.55    1.42    0.00    0.00    0.00    0.00    0.00     0.00    0.00    0.00    0.00
  141    0.00    0.00    0.49    0.02    0.00    0.00   47.66    2.03    5.23    0.51    0.00    0.00    0.00    0.00    0.00     0.00    0.00    0.00    0.00
  142    0.00    0.00    0.17    0.02    0.00    0.00   46.20    1.45    4.56    0.20    0.00    0.00    0.00    0.00    0.00     0.00    0.00    0.00    0.00
  143    5.60    0.17    1.25    0.02    0.00    0.00   47.17    2.64    4.28    1.44    0.00    0.00    0.00    0.00    0.00     0.00    0.00    0.00    0.00
  144    4.60    0.11    1.42    0.02    0.00    0.00   47.28    2.87    4.57    1.55    0.00    0.00    0.00    0.00    0.00     0.00    0.00    0.00    0.00
  145    0.00    0.00    0.49    0.02    0.00    0.00   45.18    2.11    5.39    0.52    0.00    0.00    0.00    0.00    0.00     0.00    0.00    0.00    0.00
  146    6.10    0.06    1.51    0.02    0.00    0.00   46.19    2.97    4.90    1.59    0.00    0.00    0.00    0.00    0.00     0.00    0.00    0.00    0.00
  147    1.30    0.00    0.60    0.02    0.00    0.00   44.96    2.42    4.25    0.62    0.00    0.00    0.00    0.00    0.00     0.00    0.00    0.00    0.00
  148    4.10    0.01    1.05    0.02    0.00    0.00   45.19    2.57    4.57    1.08    0.00    0.00    0.00    0.00    0.00     0.00    0.00    0.00    0.00
  149    0.80    0.00    0.37    0.02    0.00    0.00   43.67    2.33    5.16    0.39    0.00    0.00    0.00    0.00    0.00     0.00    0.00    0.00    0.00
  150   13.50    0.12    3.67    0.02    0.00    0.00   48.33    3.26    4.15    3.81    0.00    0.00    0.00    0.00    0.00     0.00    0.00    0.00    0.00
  151    0.80    0.00    1.27    0.02    0.00    0.00   46.91    2.22    3.20    1.30    0.00    0.00    0.00    0.00    0.00     0.00    0.00    0.00    0.00
    5  134.70    8.45   68.26    0.45    0.81    0.00   46.91   78.00  133.69   77.44    0.02    0.00    0.08    0.00    0.02     0.01    0.00    0.00    0.00
  152    1.80    0.00    0.64    0.02    0.00    0.00   46.00    2.41    3.46    0.67    0.00    0.00    0.00    0.00    0.00     0.00    0.00    0.00    0.00
  153    1.80    0.00    0.43    0.02    0.00    0.00   45.19    2.28    3.39    0.46    0.00    0.00    0.00    0.00    0.00     0.00    0.00    0.00    0.00
  154    0.00    0.00    0.15    0.02    0.00    0.00   43.53    1.66    4.38    0.17    0.00    0.00    0.00    0.00    0.00     0.00    0.00    0.00    0.00
  155    9.40    0.03    2.31    0.02    0.00    0.00   46.51    2.92    4.00    2.36    0.00    0.00    0.00    0.00    0.00     0.00    0.00    0.00    0.00
  156  174.20  101.10   37.60    0.02    1.18    0.00   59.22    2.56    2.78  138.64    0.43    0.01    0.11    0.01    0.00     0.41    0.01    0.05    0.00
  157    0.30    0.00   13.04    0.02    0.00    0.00   58.01    1.50    2.45   13.14    0.00    0.00    0.04    0.00    0.00     0.00    0.00    0.00    0.00
  158    1.80    0.01    4.77    0.02    0.00    0.00   57.83    1.63    1.81    4.81    0.00    0.00    0.01    0.00    0.00     0.00    0.00    0.00    0.00
  159    0.30    0.00    1.67    0.02    0.00    0.00   56.44    1.69    2.80    1.70    0.00    0.00    0.00    0.00    0.00     0.00    0.00    0.00    0.00
  160   11.70    0.66    4.29    0.02    0.13    0.00   59.10    2.57    2.79    4.98    0.00    0.00    0.01    0.00    0.00     0.00    0.00    0.00    0.00
  161    5.30    0.19    3.01    0.02    0.06    0.00   59.28    2.54    2.75    3.23    0.00    0.00    0.00    0.00    0.00     0.00    0.00    0.00    0.00
  162    0.30    0.00    1.05    0.02    0.00    0.00   58.18    1.40    2.27    1.09    0.00    0.00    0.00    0.00    0.00     0.00    0.00    0.00    0.00
  163    0.80    0.00    0.37    0.03    0.00    0.00   56.91    2.07    2.73    0.41    0.00    0.00    0.00    0.00    0.00     0.00    0.00    0.00    0.00
  164   10.70    0.55    3.46    0.03    0.11    0.00   59.34    2.50    2.67    4.04    0.00    0.00    0.00    0.00    0.00     0.00    0.00    0.00    0.00
  165    0.80    0.00    1.20    0.03    0.00    0.00   57.51    2.63    3.64    1.24    0.00    0.00    0.00    0.00    0.00     0.00    0.00    0.00    0.00
  166    1.80    0.00    0.62    0.03    0.00    0.00   56.60    2.41    3.20    0.66    0.00    0.00    0.00    0.00    0.00     0.00    0.00    0.00    0.00
  167   30.50    4.20   12.19    0.03    0.56    0.00   61.40    2.51    2.69   16.42    0.02    0.00    0.03    0.01    0.00     0.01    0.00    0.00    0.00
  168    0.80    0.00    4.24    0.03    0.00    0.00   59.60    2.60    3.57    4.28    0.00    0.00    0.01    0.00    0.00     0.00    0.00    0.00    0.00
  169    1.50    0.00    1.60    0.03    0.00    0.00   58.81    2.11    2.58    1.64    0.00    0.00    0.00    0.00    0.00     0.00    0.00    0.00    0.00
  170    0.50    0.00    0.56    0.03    0.00    0.00   57.98    1.33    2.34    0.60    0.00    0.00    0.00    0.00    0.00     0.00    0.00    0.00    0.00
  171    0.30    0.00    0.20    0.03    0.00    0.00   56.94    1.34    2.58    0.24    0.00    0.00    0.00    0.00    0.00     0.00    0.00    0.00    0.00
  172    0.00    0.00    0.07    0.03    0.00    0.00   55.46    1.48    3.73    0.11    0.00    0.00    0.00    0.00    0.00     0.00    0.00    0.00    0.00
  173    4.10    0.01    0.82    0.04    0.00    0.00   55.73    2.61    4.49    0.87    0.00    0.00    0.00    0.00    0.00     0.00    0.00    0.00    0.00
  174    6.10    0.04    1.68    0.04    0.01    0.00   56.92    2.72    3.95    1.76    0.00    0.00    0.00    0.00    0.00     0.00    0.00    0.00    0.00
  175    8.90    0.26    2.87    0.04    0.03    0.00   59.46    2.55    2.79    3.17    0.00    0.00    0.00    0.00    0.00     0.00    0.00    0.00    0.00
  176   17.30    1.23    7.99    0.04    0.36    0.00   62.45    1.96    2.08    9.25    0.00    0.00    0.02    0.00    0.00     0.00    0.00    0.00    0.00
  177    0.00    0.00    2.78    0.04    0.00    0.00   60.91    1.54    2.57    2.83    0.00    0.00    0.01    0.00    0.00     0.00    0.00    0.00    0.00
  178    0.00    0.00    0.98    0.04    0.00    0.00   60.15    0.77    1.46    1.02    0.00    0.00    0.00    0.00    0.00     0.00    0.00    0.00    0.00
  179    3.00    0.03    0.83    0.04    0.00    0.00   59.68    2.68    3.51    0.91    0.00    0.00    0.00    0.00    0.00     0.00    0.00    0.00    0.00
  180    0.30    0.00    0.29    0.04    0.00    0.00   58.38    1.60    2.97    0.34    0.00    0.00    0.00    0.00    0.00     0.00    0.00    0.00    0.00
  181    4.80    0.05    1.14    0.04    0.00    0.00   59.58    1.96    2.17    1.23    0.00    0.00    0.00    0.00    0.00     0.00    0.00    0.00    0.00
    6  299.10  108.36  112.87    0.85    2.48    0.00   59.58   62.55   88.60  222.27    0.46    0.01    0.26    0.02    0.00     0.42    0.01    0.05    0.00
  182    2.30    0.01    0.75    0.04    0.00    0.00   58.55    2.77    3.82    0.80    0.00    0.00    0.00    0.00    0.00     0.00    0.00    0.00    0.00
  183   14.00    0.73    4.97    0.04    0.20    0.00   61.39    2.98    3.44    5.74    0.00    0.00    0.01    0.00    0.00     0.00    0.00    0.00    0.00
  184    6.90    0.28    3.88    0.04    0.09    0.00   60.76    3.84    4.90    4.21    0.00    0.00    0.01    0.00    0.00     0.00    0.00    0.00    0.00
  185    0.00    0.00    1.36    0.04    0.00    0.00   58.59    2.17    4.31    1.41    0.00    0.00    0.00    0.00    0.00     0.00    0.00    0.00    0.00
  186    7.60    0.18    2.25    0.04    0.01    0.00   60.26    3.02    3.71    2.47    0.00    0.00    0.00    0.00    0.00     0.00    0.00    0.00    0.00
  187    1.50    0.00    0.91    0.04    0.00    0.00   58.75    2.82    3.88    0.96    0.00    0.00    0.00    0.00    0.00     0.00    0.00    0.00    0.00
  188    5.10    0.06    1.45    0.04    0.01    0.00   60.97    1.09    1.16    1.56    0.00    0.00    0.00    0.00    0.00     0.00    0.00    0.00    0.00
  189    0.30    0.00    0.50    0.04    0.00    0.00   59.85    1.42    1.85    0.55    0.00    0.00    0.00    0.00    0.00     0.00    0.00    0.00    0.00
  190    0.00    0.00    0.18    0.04    0.00    0.00   58.59    1.26    2.26    0.23    0.00    0.00    0.00    0.00    0.00     0.00    0.00    0.00    0.00
  191    2.80    0.00    0.55    0.04    0.00    0.00   58.57    2.07    2.40    0.61    0.00    0.00    0.00    0.00    0.01     0.00    0.00    0.00    0.00
  192    0.30    0.00    0.19    0.04    0.00    0.00   57.72    1.16    2.27    0.24    0.00    0.00    0.00    0.00    0.01     0.00    0.00    0.00    0.00
  193   14.70    0.59    4.87    0.04    0.19    0.00   62.18    2.05    2.15    5.51    0.00    0.00    0.01    0.00    0.01     0.00    0.00    0.00    0.00
  194   24.40    2.91   12.27    0.04    0.58    0.00   65.25    1.56    1.63   15.22    0.01    0.00    0.04    0.01    0.01     0.01    0.00    0.00    0.00
  195    2.00    0.02    4.61    0.04    0.01    0.00   64.80    1.89    1.98    4.69    0.00    0.00    0.01    0.00    0.01     0.00    0.00    0.00    0.00
  196    9.40    0.57    5.35    0.05    0.22    0.00   65.10    2.57    2.72    5.97    0.00    0.00    0.01    0.00    0.02     0.00    0.00    0.00    0.00
  197    5.10    0.21    3.28    0.05    0.06    0.00   64.74    3.00    3.43    3.55    0.00    0.00    0.01    0.00    0.01     0.00    0.00    0.00    0.00
  198   31.80    5.82   13.97    0.05    0.73    0.00   66.78    3.49    4.22   19.83    0.01    0.01    0.03    0.01    0.00     0.01    0.00    0.00    0.00
  199   10.40    0.68    8.56    0.05    0.18    0.00   67.59    3.03    3.47    9.31    0.00    0.00    0.02    0.00    0.00     0.00    0.00    0.00    0.00
  200   33.50    6.92   16.13    0.05    0.77    0.00   69.85    3.31    3.91   23.11    0.05    0.00    0.03    0.01    0.00     0.04    0.00    0.00    0.00
  201   27.40    4.62   16.59    0.05    0.66    0.00   72.58    2.50    2.61   21.27    0.00    0.00    0.03    0.01    0.00     0.02    0.00    0.00    0.00
  202    0.00    0.00    5.79    0.06    0.00    0.00   71.64    0.94    1.58    5.86    0.00    0.00    0.01    0.00    0.00     0.00    0.00    0.00    0.00
  203    0.00    0.00    2.03    0.06    0.00    0.00   70.37    1.27    2.31    2.10    0.00    0.00    0.00    0.00    0.01     0.00    0.00    0.00    0.00
  204    0.00    0.00    0.72    0.06    0.00    0.00   68.87    1.51    3.32    0.79    0.00    0.00    0.00    0.00    0.00     0.00    0.00    0.00    0.00
  205   13.70    0.92    4.62    0.06    0.17    0.00   70.86    3.91    4.88    5.61    0.00    0.00    0.00    0.00    0.01     0.00    0.00    0.00    0.00
  206    0.00    0.00    1.61    0.07    0.00    0.00   68.03    2.84    5.71    1.69    0.00    0.00    0.00    0.00    0.01     0.00    0.00    0.00    0.00
  207    0.00    0.00    0.57    0.07    0.00    0.00   66.24    1.79    4.86    0.64    0.00    0.00    0.00    0.00    0.00     0.00    0.00    0.00    0.00
  208   23.40    2.37    7.95    0.07    0.31    0.00   71.25    3.79    4.67   10.39    0.01    0.00    0.01    0.00    0.00     0.01    0.00    0.00    0.00
  209    4.10    0.10    3.61    0.07    0.00    0.00   70.63    3.31    4.17    3.80    0.00    0.00    0.00    0.00    0.00     0.00    0.00    0.00    0.00
  210    4.80    0.13    2.31    0.07    0.01    0.00   70.44    3.24    4.02    2.52    0.00    0.00    0.00    0.00    0.00     0.00    0.00    0.00    0.00
  211    0.50    0.00    0.81    0.07    0.00    0.00   68.54    2.40    3.88    0.89    0.00    0.00    0.00    0.00    0.00     0.00    0.00    0.00    0.00
  212    2.80    0.01    0.74    0.08    0.00    0.00   68.04    2.58    3.58    0.83    0.00    0.00    0.00    0.00    0.00     0.00    0.00    0.00    0.00
    7  248.80   27.15  133.40    1.63    4.24    0.00   68.04   75.56  103.09  162.35    0.09    0.02    0.25    0.05    0.13     0.08    0.00    0.01    0.00
  213    9.70    0.33    2.84    0.08    0.05    0.00   70.77    2.62    2.80    3.25    0.00    0.00    0.00    0.00    0.00     0.00    0.00    0.00    0.00
  214    0.30    0.00    0.99    0.08    0.00    0.00   69.37    1.70    2.72    1.07    0.00    0.00    0.00    0.00    0.00     0.00    0.00    0.00    0.00
  215   21.10    2.21    8.42    0.08    0.45    0.00   73.45    1.94    2.01   10.71    0.02    0.00    0.01    0.01    0.00     0.01    0.00    0.00    0.00
  216   14.00    1.03    8.95    0.08    0.38    0.00   73.49    3.28    3.82   10.08    0.00    0.00    0.02    0.01    0.00     0.00    0.00    0.00    0.00
  217   16.50    1.49    9.79    0.08    0.40    0.00   74.65    3.18    3.65   11.37    0.00    0.00    0.02    0.01    0.00     0.00    0.00    0.00    0.00
  218    4.80    0.18    4.52    0.08    0.03    0.00   74.22    3.34    3.91    4.79    0.00    0.00    0.01    0.00    0.00     0.00    0.00    0.00    0.00
  219    0.00    0.00    1.58    0.08    0.00    0.00   71.31    2.91    5.48    1.68    0.00    0.00    0.00    0.00    0.00     0.00    0.00    0.00    0.00
  220    0.50    0.00    0.56    0.09    0.00    0.00   69.01    2.80    6.28    0.65    0.00    0.00    0.00    0.00    0.00     0.00    0.00    0.00    0.00
  221    7.10    0.14    1.83    0.09    0.00    0.00   70.04    3.43    5.25    2.06    0.00    0.00    0.00    0.00    0.00     0.00    0.00    0.00    0.00
  222   74.70   33.43   20.04    0.09    1.22    0.00   77.53    2.65    2.79   53.54    0.23    0.00    0.03    0.02    0.00     0.29    0.00    0.04    0.00
  223    0.00    0.00    6.97    0.09    0.00    0.00   75.32    2.21    3.76    7.10    0.00    0.00    0.01    0.00    0.00     0.00    0.00    0.00    0.00
  224    0.30    0.00    2.44    0.09    0.00    0.00   74.07    1.55    2.92    2.54    0.00    0.00    0.00    0.00    0.00     0.00    0.00    0.00    0.00
  225    0.00    0.00    0.86    0.09    0.00    0.00   72.55    1.52    3.71    0.97    0.00    0.00    0.00    0.00    0.00     0.00    0.00    0.00    0.00
  226    0.00    0.00    0.31    0.10    0.00    0.00   70.93    1.62    4.67    0.41    0.00    0.00    0.00    0.00    0.00     0.00    0.00    0.00    0.00
  227   30.00    5.00    9.67    0.10    0.44    0.00   76.61    4.16    5.21   14.76    0.04    0.00    0.01    0.01    0.00     0.04    0.00    0.01    0.00
  228  103.10   59.56   25.29    0.10    1.61    0.00   81.51    3.18    3.60   84.92    0.93    0.00    0.03    0.02    0.00     1.24    0.00    0.15    0.00
  229   88.60   49.31   28.79    0.11    1.56    0.00   86.77    1.62    1.67   78.21    0.00    0.00    0.03    0.03    0.00     0.40    0.00    0.05    0.00
  230    8.10    0.49   13.34    0.11    0.23    0.00   87.36    1.74    1.79   13.98    0.00    0.00    0.02    0.01    0.00     0.00    0.00    0.00    0.00
  231   37.60   12.24   17.64    0.12    0.99    0.00   90.06    1.71    1.76   29.99    0.06    0.00    0.02    0.02    0.00     0.06    0.00    0.01    0.00
  232    0.50    0.00    6.17    0.12    0.01    0.00   89.41    1.14    1.42    6.32    0.00    0.00    0.01    0.00    0.00     0.00    0.00    0.00    0.00
  233   13.00    1.21    7.52    0.13    0.35    0.00   90.07    2.57    2.65    8.86    0.01    0.00    0.01    0.01    0.00     0.00    0.00    0.00    0.00
  234    0.00    0.00    2.64    0.13    0.01    0.00   86.86    3.21    5.41    2.78    0.00    0.00    0.00    0.00    0.00     0.00    0.00    0.00    0.00
  235    0.00    0.00    0.94    0.13    0.00    0.00   84.97    1.89    4.36    1.08    0.00    0.00    0.00    0.00    0.00     0.00    0.00    0.00    0.00
  236    1.30    0.00    0.34    0.14    0.00    0.00   83.95    2.30    3.48    0.49    0.00    0.00    0.00    0.00    0.00     0.00    0.00    0.00    0.00
  237    0.80    0.00    0.13    0.14    0.00    0.00   82.69    2.07    3.63    0.27    0.00    0.00    0.00    0.00    0.00     0.00    0.00    0.00    0.00
  238   30.20    7.28    8.76    0.14    0.42    0.00   88.69    3.06    3.34   16.18    0.05    0.00    0.01    0.01    0.00     0.06    0.00    0.01    0.00
  239    0.50    0.00    3.05    0.15    0.00    0.00   86.57    2.62    3.82    3.21    0.00    0.00    0.00    0.00    0.00     0.00    0.00    0.00    0.00
  240    0.00    0.00    1.07    0.15    0.00    0.00   84.64    1.94    4.00    1.23    0.00    0.00    0.00    0.00    0.00     0.00    0.00    0.00    0.00
  241    0.00    0.00    0.38    0.15    0.00    0.00   83.10    1.53    3.93    0.54    0.00    0.00    0.00    0.00    0.00     0.00    0.00    0.00    0.00
  242    0.00    0.00    0.14    0.15    0.00    0.00   81.31    1.80    5.28    0.30    0.00    0.00    0.00    0.00    0.00     0.00    0.00    0.00    0.00
  243    5.10    0.01    1.10    0.15    0.00    0.00   82.45    2.34    3.59    1.27    0.00    0.00    0.00    0.00    0.00     0.00    0.00    0.00    0.00
    8  467.80  173.91  197.08    3.41    8.17    0.00   82.45   73.62  112.70  374.58    1.36    0.01    0.25    0.13    0.02     2.10    0.01    0.26    0.00
  244   44.70   15.36   12.57    0.15    0.74    0.00   89.34    2.90    3.08   28.08    0.18    0.00    0.01    0.01    0.00     0.21    0.00    0.03    0.00
  245    2.80    0.05    4.87    0.16    0.00    0.00   88.81    2.53    2.65    5.10    0.00    0.00    0.00    0.00    0.00     0.00    0.00    0.00    0.00
  246    1.30    0.00    1.78    0.16    0.00    0.00   88.30    1.69    1.74    1.95    0.00    0.00    0.00    0.00    0.00     0.00    0.00    0.00    0.00
  247    0.00    0.00    0.63    0.16    0.00    0.00   86.25    2.06    3.45    0.79    0.00    0.00    0.00    0.00    0.00     0.00    0.00    0.00    0.00
  248    0.00    0.00    0.23    0.16    0.00    0.00   84.28    1.97    4.25    0.39    0.00    0.00    0.00    0.00    0.00     0.00    0.00    0.00    0.00
  249    0.00    0.00    0.08    0.16    0.00    0.00   82.56    1.73    4.63    0.25    0.00    0.00    0.00    0.00    0.00     0.00    0.00    0.00    0.00
  250   25.10    4.27    7.37    0.16    0.33    0.00   87.32    4.42    5.45   11.80    0.04    0.00    0.01    0.00    0.00     0.04    0.00    0.00    0.00
  251   12.70    0.97    7.02    0.16    0.23    0.00   88.92    3.06    3.31    8.15    0.00    0.00    0.01    0.00    0.00     0.00    0.00    0.00    0.00
  252    7.40    0.36    4.85    0.16    0.12    0.00   89.21    2.93    3.11    5.38    0.00    0.00    0.01    0.00    0.00     0.00    0.00    0.00    0.00
  253    3.60    0.09    2.41    0.16    0.01    0.00   87.86    3.76    4.51    2.67    0.00    0.00    0.00    0.00    0.00     0.00    0.00    0.00    0.00
  254    0.30    0.00    0.85    0.16    0.00    0.00   84.69    3.46    6.17    1.02    0.00    0.00    0.00    0.00    0.00     0.00    0.00    0.00    0.00
  255    1.30    0.00    0.33    0.16    0.00    0.00   82.31    3.64    6.84    0.50    0.00    0.00    0.00    0.00    0.00     0.00    0.00    0.00    0.00
  256    8.40    0.09    2.15    0.16    0.00    0.00   83.54    3.96    5.95    2.41    0.00    0.00    0.00    0.00    0.00     0.00    0.00    0.00    0.00
  257    0.30    0.00    0.75    0.16    0.00    0.00   81.46    2.39    5.12    0.91    0.00    0.00    0.00    0.00    0.00     0.00    0.00    0.00    0.00
  258    2.30    0.00    0.57    0.16    0.00    0.00   80.60    2.68    4.99    0.73    0.00    0.00    0.00    0.00    0.00     0.00    0.00    0.00    0.00
  259    3.30    0.00    0.82    0.16    0.00    0.00   80.11    2.84    5.40    0.99    0.00    0.00    0.00    0.00    0.00     0.00    0.00    0.00    0.00
  260    5.60    0.01    1.55    0.16    0.00    0.00   81.33    2.43    3.57    1.72    0.00    0.00    0.00    0.00    0.00     0.00    0.00    0.00    0.00
  261   16.50    1.31    5.46    0.16    0.09    0.00   84.84    4.01    4.89    6.92    0.01    0.00    0.00    0.00    0.00     0.01    0.00    0.00    0.00
  262    0.30    0.00    1.90    0.15    0.00    0.00   82.58    2.57    4.39    2.06    0.00    0.00    0.00    0.00    0.00     0.00    0.00    0.00    0.00
  263    0.30    0.00    0.66    0.15    0.00    0.00   80.09    2.79    6.43    0.82    0.00    0.00    0.00    0.00    0.00     0.00    0.00    0.00    0.00
  264   14.70    0.44    4.23    0.15    0.07    0.00   84.46    3.66    4.35    4.83    0.01    0.00    0.00    0.00    0.00     0.01    0.00    0.00    0.00
  265    1.50    0.00    1.60    0.15    0.00    0.00   82.48    3.28    4.55    1.76    0.00    0.00    0.00    0.00    0.00     0.00    0.00    0.00    0.00
  266    0.30    0.00    0.56    0.15    0.00    0.00   79.51    3.28    6.91    0.71    0.00    0.00    0.00    0.00    0.00     0.00    0.00    0.00    0.00
  267    0.00    0.00    0.20    0.15    0.00    0.00   77.34    2.18    6.88    0.35    0.00    0.00    0.00    0.00    0.00     0.00    0.00    0.00    0.00
  268    0.50    0.00    0.07    0.14    0.00    0.00   75.68    2.16    7.18    0.22    0.00    0.00    0.00    0.00    0.00     0.00    0.00    0.00    0.00
  269    0.00    0.00    0.03    0.14    0.00    0.00   74.02    1.67    7.49    0.17    0.00    0.00    0.00    0.00    0.00     0.00    0.00    0.00    0.00
  270    0.00    0.00    0.01    0.14    0.00    0.00   72.48    1.55    8.05    0.16    0.00    0.00    0.00    0.00    0.00     0.00    0.00    0.00    0.00
  271   10.90    0.05    2.65    0.14    0.00    0.00   76.09    3.18    5.93    2.84    0.00    0.00    0.00    0.00    0.00     0.00    0.00    0.00    0.00
  272    0.30    0.00    0.92    0.14    0.00    0.00   74.64    1.75    4.02    1.06    0.00    0.00    0.00    0.00    0.00     0.00    0.00    0.00    0.00
  273    2.30    0.00    0.63    0.13    0.00    0.00   74.01    2.47    5.20    0.77    0.00    0.00    0.00    0.00    0.00     0.00    0.00    0.00    0.00
    9  166.70   23.00   67.74    4.59    1.60    0.00   74.01   82.99  150.47   95.53    0.25    0.00    0.06    0.02    0.01     0.27    0.00    0.03    0.00
  274    0.00    0.00    0.22    0.13    0.00    0.00   72.65    1.36    5.18    0.36    0.00    0.00    0.00    0.00    0.00     0.00    0.00    0.00    0.00
  275    7.10    0.01    1.69    0.13    0.00    0.00   74.95    2.31    3.74    1.84    0.00    0.00    0.00    0.00    0.00     0.00    0.00    0.00    0.00
  276    0.50    0.00    0.59    0.13    0.00    0.00   73.52    1.93    4.51    0.72    0.00    0.00    0.00    0.00    0.00     0.00    0.00    0.00    0.00
  277    0.00    0.00    0.20    0.12    0.00    0.00   71.96    1.57    5.98    0.33    0.00    0.00    0.00    0.00    0.00     0.00    0.00    0.00    0.00
  278    0.50    0.00    0.07    0.12    0.00    0.00   70.86    1.60    5.74    0.20    0.00    0.00    0.00    0.00    0.00     0.00    0.00    0.00    0.00
  279    1.50    0.00    0.11    0.12    0.00    0.00   70.44    1.79    3.84    0.23    0.00    0.00    0.00    0.00    0.00     0.00    0.00    0.00    0.00
  280    2.50    0.00    0.44    0.12    0.00    0.00   70.33    1.99    4.35    0.56    0.00    0.00    0.00    0.00    0.00     0.00    0.00    0.00    0.00
  281    0.30    0.00    0.15    0.11    0.00    0.00   69.64    0.99    3.21    0.27    0.00    0.00    0.00    0.00    0.00     0.00    0.00    0.00    0.00
  282    0.50    0.00    0.05    0.11    0.00    0.00   68.82    1.32    4.46    0.17    0.00    0.00    0.00    0.00    0.00     0.00    0.00    0.00    0.00
  283   72.40   27.21   15.33    0.11    0.53    0.00   86.16    3.69    4.38   42.65    0.45    0.00    0.02    0.01    0.00     0.57    0.00    0.07    0.00
  284    9.90    0.71    8.51    0.11    0.16    0.00   86.47    3.83    4.57    9.34    0.00    0.00    0.01    0.00    0.00     0.00    0.00    0.00    0.00
  285    0.30    0.00    2.98    0.11    0.02    0.00   84.16    2.60    4.36    3.09    0.00    0.00    0.00    0.00    0.00     0.00    0.00    0.00    0.00
  286    6.10    0.35    2.41    0.10    0.02    0.00   84.21    3.60    4.78    2.87    0.00    0.00    0.00    0.00    0.00     0.00    0.00    0.00    0.00
  287    0.30    0.00    0.85    0.10    0.01    0.00   81.53    2.96    6.00    0.96    0.00    0.00    0.00    0.00    0.00     0.00    0.00    0.00    0.00
  288   43.70   14.71   12.96    0.10    0.72    0.00   86.13    4.14    5.04   27.76    0.16    0.00    0.03    0.01    0.00     0.20    0.00    0.02    0.00
  289    0.00    0.00    4.52    0.10    0.01    0.00   83.43    2.69    5.45    4.64    0.00    0.00    0.01    0.00    0.00     0.00    0.00    0.00    0.00
  290    2.30    0.06    1.88    0.10    0.01    0.00   82.02    3.20    5.42    2.04    0.00    0.00    0.00    0.00    0.00     0.00    0.00    0.00    0.00
  291    2.00    0.04    0.93    0.10    0.01    0.00   80.05    3.51    6.87    1.08    0.00    0.00    0.00    0.00    0.00     0.00    0.00    0.00    0.00
  292   27.40    5.68    8.46    0.10    0.34    0.00   84.78    4.13    5.03   14.23    0.10    0.00    0.01    0.01    0.00     0.11    0.00    0.01    0.00
  293    6.10    0.35    4.40    0.10    0.04    0.00   83.97    4.30    5.32    4.86    0.00    0.00    0.00    0.00    0.00     0.00    0.00    0.00    0.00
  294    0.00    0.00    1.54    0.10    0.01    0.00   81.27    2.70    5.59    1.64    0.00    0.00    0.00    0.00    0.00     0.00    0.00    0.00    0.00
  295    0.00    0.00    0.54    0.10    0.01    0.00   79.25    2.01    5.41    0.65    0.00    0.00    0.00    0.00    0.00     0.00    0.00    0.00    0.00
  296    0.00    0.00    0.19    0.10    0.01    0.00   76.96    2.29    7.17    0.30    0.00    0.00    0.00    0.00    0.00     0.00    0.00    0.00    0.00
  297    1.00    0.00    0.07    0.10    0.00    0.00   75.46    2.50    6.12    0.17    0.00    0.00    0.00    0.00    0.00     0.00    0.00    0.00    0.00
  298    0.00    0.00    0.03    0.09    0.00    0.00   73.70    1.76    6.24    0.13    0.00    0.00    0.00    0.00    0.00     0.00    0.00    0.00    0.00
  299    0.00    0.00    0.01    0.09    0.00    0.00   72.19    1.51    6.22    0.11    0.00    0.00    0.00    0.00    0.00     0.00    0.00    0.00    0.00
  300    0.00    0.00    0.00    0.09    0.00    0.00   70.40    1.79    7.96    0.10    0.00    0.00    0.00    0.00    0.00     0.00    0.00    0.00    0.00
  301    0.00    0.00    0.00    0.09    0.00    0.00   69.10    1.31    6.87    0.10    0.00    0.00    0.00    0.00    0.00     0.00    0.00    0.00    0.00
  302    0.30    0.00    0.00    0.09    0.00    0.00   68.36    1.05    4.85    0.10    0.00    0.00    0.00    0.00    0.00     0.00    0.00    0.00    0.00
  303   12.70    0.09    3.16    0.09    0.00    0.00   73.50    2.62    4.77    3.34    0.00    0.00    0.00    0.00    0.00     0.00    0.00    0.00    0.00
  304   37.10    9.60   11.38    0.08    0.33    0.00   81.24    3.58    4.22   21.05    0.39    0.00    0.01    0.01    0.00     0.37    0.00    0.05    0.00
   10  234.50   58.82   83.67    3.23    2.23    0.00   81.24   76.66  163.66  145.90    1.11    0.01    0.12    0.04    0.00     1.25    0.00    0.15    0.00
  305    1.30    0.00    4.03    0.08    0.00    0.00   78.66    3.77    5.52    4.13    0.00    0.00    0.00    0.00    0.00     0.00    0.00    0.00    0.00
  306    3.60    0.04    2.12    0.08    0.00    0.00   78.94    2.19    2.62    2.25    0.00    0.00    0.00    0.00    0.00     0.00    0.00    0.00    0.00
  307    0.00    0.00    0.74    0.08    0.00    0.00   76.14    2.80    6.11    0.83    0.00    0.00    0.00    0.00    0.00     0.00    0.00    0.00    0.00
  308    0.00    0.00    0.26    0.08    0.00    0.00   73.78    2.37    7.62    0.35    0.00    0.00    0.00    0.00    0.00     0.00    0.00    0.00    0.00
  309    0.00    0.00    0.10    0.08    0.00    0.00   72.01    1.77    7.33    0.18    0.00    0.00    0.00    0.00    0.00     0.00    0.00    0.00    0.00
  310    0.00    0.00    0.04    0.08    0.00    0.00   70.51    1.51    7.25    0.12    0.00    0.00    0.00    0.00    0.00     0.00    0.00    0.00    0.00
  311    0.00    0.00    0.01    0.07    0.00    0.00   69.20    1.32    7.05    0.09    0.00    0.00    0.00    0.00    0.00     0.00    0.00    0.00    0.00
  312    3.00    0.00    0.48    0.07    0.00    0.00   69.08    2.40    6.63    0.55    0.00    0.00    0.00    0.00    0.00     0.00    0.00    0.00    0.00
  313    5.30    0.01    1.34    0.06    0.00    0.00   70.19    2.39    5.37    1.42    0.00    0.00    0.00    0.00    0.00     0.00    0.00    0.00    0.00
  314    3.60    0.00    1.17    0.06    0.00    0.00   70.84    1.86    3.14    1.25    0.00    0.00    0.00    0.00    0.00     0.00    0.00    0.00    0.00
  315    3.00    0.00    0.95    0.06    0.00    0.00   70.80    2.20    4.07    1.02    0.00    0.00    0.00    0.00    0.00     0.00    0.00    0.00    0.00
  316    1.30    0.00    0.40    0.06    0.00    0.00   69.99    2.00    3.88    0.47    0.00    0.00    0.00    0.00    0.00     0.00    0.00    0.00    0.00
  317   38.40    8.89   10.63    0.06    0.30    0.00   79.36    3.66    4.38   19.58    0.23    0.00    0.01    0.01    0.00     0.25    0.00    0.03    0.00
  318    0.00    0.00    3.70    0.06    0.00    0.00   77.46    1.91    3.45    3.77    0.00    0.00    0.00    0.00    0.00     0.00    0.00    0.00    0.00
  319    0.00    0.00    1.30    0.06    0.00    0.00   76.79    0.67    1.43    1.36    0.00    0.00    0.00    0.00    0.00     0.00    0.00    0.00    0.00
  320    0.00    0.00    0.46    0.06    0.00    0.00   74.70    2.09    5.47    0.52    0.00    0.00    0.00    0.00    0.00     0.00    0.00    0.00    0.00
  321    0.00    0.00    0.16    0.06    0.00    0.00   73.46    1.25    3.82    0.23    0.00    0.00    0.00    0.00    0.00     0.00    0.00    0.00    0.00
  322    9.40    0.31    2.30    0.06    0.01    0.00   75.46    3.65    5.34    2.67    0.00    0.00    0.00    0.00    0.00     0.00    0.00    0.00    0.00
  323    4.80    0.08    1.84    0.05    0.01    0.00   74.35    4.22    6.50    1.99    0.00    0.00    0.00    0.00    0.00     0.00    0.00    0.00    0.00
  324    8.60    0.20    2.76    0.05    0.02    0.00   76.77    2.69    3.01    3.03    0.00    0.00    0.00    0.00    0.00     0.00    0.00    0.00    0.00
  325    2.30    0.01    1.31    0.05    0.00    0.00   75.04    3.48    4.73    1.38    0.00    0.00    0.00    0.00    0.00     0.00    0.00    0.00    0.00
  326    3.30    0.02    1.09    0.05    0.00    0.00   74.50    2.86    3.88    1.16    0.00    0.00    0.00    0.00    0.00     0.00    0.00    0.00    0.00
  327    0.30    0.00    0.38    0.05    0.00    0.00   72.60    2.20    4.40    0.44    0.00    0.00    0.00    0.00    0.00     0.00    0.00    0.00    0.00
  328   48.30   14.63   13.90    0.05    0.79    0.00   80.52    3.73    4.43   28.58    0.48    0.00    0.03    0.02    0.00     0.51    0.00    0.06    0.00
  329    0.00    0.00    4.84    0.05    0.01    0.00   77.80    2.72    5.11    4.91    0.00    0.00    0.01    0.00    0.00     0.00    0.00    0.00    0.00
  330    0.00    0.00    1.70    0.05    0.00    0.00   75.29    2.51    6.47    1.76    0.00    0.00    0.00    0.00    0.00     0.00    0.00    0.00    0.00
  331    5.30    0.19    1.71    0.05    0.01    0.00   75.19    3.52    6.02    1.96    0.00    0.00    0.00    0.00    0.00     0.00    0.00    0.00    0.00
  332    6.10    0.22    2.00    0.05    0.01    0.00   75.54    3.36    5.12    2.28    0.00    0.00    0.00    0.00    0.00     0.00    0.00    0.00    0.00
  333    0.50    0.00    0.70    0.05    0.00    0.00   73.15    2.90    6.09    0.76    0.00    0.00    0.00    0.00    0.00     0.00    0.00    0.00    0.00
  334   32.50    6.82   10.13    0.05    0.44    0.00   79.83    3.33    3.78   17.00    0.31    0.00    0.02    0.01    0.00     0.28    0.00    0.03    0.00
   11  180.90   31.43   72.57    1.86    1.61    0.00   79.83   77.30  150.04  106.04    1.02    0.00    0.10    0.03    0.00     1.03    0.00    0.13    0.00
  335   10.90    0.67    7.54    0.05    0.20    0.00   79.73    3.95    4.76    8.27    0.00    0.00    0.02    0.00    0.00     0.00    0.00    0.00    0.00
  336    0.30    0.00    2.63    0.06    0.00    0.00   78.70    1.33    2.20    2.70    0.00    0.00    0.01    0.00    0.00     0.00    0.00    0.00    0.00
  337    5.80    0.20    2.26    0.06    0.00    0.00   78.11    4.14    5.43    2.51    0.00    0.00    0.00    0.00    0.00     0.00    0.00    0.00    0.00
  338    2.30    0.01    1.14    0.06    0.00    0.00   76.46    3.41    5.02    1.21    0.00    0.00    0.00    0.00    0.00     0.00    0.00    0.00    0.00
  339    4.30    0.04    1.30    0.06    0.00    0.00   76.11    3.24    4.69    1.40    0.00    0.00    0.00    0.00    0.00     0.00    0.00    0.00    0.00
  340   22.60    2.93    8.13    0.06    0.38    0.00   79.52    4.06    4.92   11.11    0.19    0.00    0.01    0.01    0.00     0.15    0.00    0.02    0.00
  341   14.50    1.15    8.26    0.06    0.29    0.00   81.00    3.22    3.60    9.47    0.00    0.00    0.02    0.01    0.00     0.01    0.00    0.00    0.00
  342    0.50    0.00    2.88    0.06    0.00    0.00   78.55    2.96    4.58    2.95    0.00    0.00    0.01    0.00    0.00     0.00    0.00    0.00    0.00
  343   50.50   18.78   15.81    0.06    1.00    0.00   83.04    3.41    3.87   34.64    1.52    0.00    0.04    0.02    0.00     1.26    0.00    0.15    0.00
  344   21.60    3.45   13.84    0.06    0.53    0.00   84.47    3.37    3.81   17.37    0.00    0.00    0.03    0.01    0.00     0.09    0.00    0.01    0.00
  345   41.10   13.97   18.09    0.07    0.96    0.00   87.89    2.30    2.33   32.12    1.63    0.00    0.04    0.02    0.00     1.17    0.00    0.14    0.00
  346    1.30    0.00    6.39    0.07    0.00    0.00   86.10    2.98    3.53    6.49    0.00    0.00    0.01    0.00    0.00     0.00    0.00    0.00    0.00
  347   17.50    2.24    8.75    0.07    0.39    0.00   87.81    3.16    3.44   11.06    0.08    0.00    0.01    0.01    0.00     0.06    0.00    0.01    0.00
  348    8.40    0.48    5.93    0.08    0.15    0.00   87.14    4.03    4.78    6.50    0.00    0.00    0.01    0.00    0.00     0.00    0.00    0.00    0.00
  349    1.50    0.01    2.21    0.08    0.00    0.00   84.95    3.50    4.93    2.30    0.00    0.00    0.00    0.00    0.00     0.00    0.00    0.00    0.00
  350    1.00    0.00    0.78    0.08    0.00    0.00   82.35    3.60    6.39    0.87    0.00    0.00    0.00    0.00    0.00     0.00    0.00    0.00    0.00
  351    6.60    0.17    1.81    0.08    0.00    0.00   81.73    4.71    7.73    2.07    0.00    0.00    0.00    0.00    0.00     0.00    0.00    0.00    0.00
  352    3.30    0.00    1.26    0.08    0.00    0.00   80.15    3.93    7.43    1.35    0.00    0.00    0.00    0.00    0.00     0.00    0.00    0.00    0.00
  353    0.00    0.00    0.44    0.09    0.00    0.00   77.82    2.33    7.48    0.53    0.00    0.00    0.00    0.00    0.00     0.00    0.00    0.00    0.00
  354    6.40    0.01    1.58    0.09    0.00    0.00   78.66    3.38    6.55    1.68    0.00    0.00    0.00    0.00    0.00     0.00    0.00    0.00    0.00
  355    6.60    0.04    2.08    0.09    0.00    0.00   79.77    3.09    4.80    2.22    0.00    0.00    0.00    0.00    0.00     0.00    0.00    0.00    0.00
  356    0.00    0.00    0.72    0.09    0.00    0.00   77.80    1.98    5.03    0.82    0.00    0.00    0.00    0.00    0.00     0.00    0.00    0.00    0.00
  357    3.30    0.00    0.82    0.09    0.00    0.00   78.05    2.18    3.55    0.92    0.00    0.00    0.00    0.00    0.00     0.00    0.00    0.00    0.00
  358   16.30    0.90    4.90    0.09    0.02    0.00   82.74    3.60    4.26    5.89    0.01    0.00    0.00    0.00    0.00     0.01    0.00    0.00    0.00
  359    3.30    0.06    2.33    0.09    0.00    0.00   82.09    2.93    3.52    2.48    0.00    0.00    0.00    0.00    0.00     0.00    0.00    0.00    0.00
  360    2.00    0.01    1.08    0.09    0.00    0.00   80.99    2.69    3.43    1.18    0.00    0.00    0.00    0.00    0.00     0.00    0.00    0.00    0.00
  361    1.00    0.00    0.38    0.09    0.00    0.00   79.11    2.88    4.38    0.47    0.00    0.00    0.00    0.00    0.00     0.00    0.00    0.00    0.00
  362    0.00    0.00    0.13    0.09    0.00    0.00   76.98    2.14    5.34    0.23    0.00    0.00    0.00    0.00    0.00     0.00    0.00    0.00    0.00
  363    7.10    0.02    1.66    0.09    0.00    0.00   77.96    3.62    5.82    1.78    0.00    0.00    0.00    0.00    0.00     0.00    0.00    0.00    0.00
  364    1.00    0.00    0.58    0.09    0.00    0.00   76.72    2.25    3.69    0.67    0.00    0.00    0.00    0.00    0.00     0.00    0.00    0.00    0.00
  365   48.80   15.83   12.96    0.09    0.68    0.00   85.42    3.91    4.62   28.87    1.89    0.00    0.02    0.02    0.00     1.34    0.00    0.16    0.00
   12  309.80   60.97  138.65    2.36    4.62    0.00   85.42   98.24  145.92  202.14    5.33    0.01    0.24    0.11    0.00     4.08    0.00    0.50    0.00

 2013 3096.30  768.75 1346.24   36.46   48.81    0.00   85.42  922.22 1500.30 2154.28   28.17    0.12    2.12    1.44    9.90    41.27    0.06    5.04    0.00
1
    SWAT Dec 23 2016    VER 2016/Rev 664                                            

    General Input/Output section (file.cio):                                        
    2/12/2020 14:39:08 QSWAT Workflow v1.5.2                                        
                                                                                    
Annual Summary for Watershed in year    5 of simulation

UNIT                                    PERCO    TILE                           WATER     SED     NO3     NO3     NO3     NO3        N       P       P
TIME     PREC    SURQ    LATQ     GWQ    LATE       Q     SW       ET     PET   YIELD   YIELD    SURQ    LATQ    PERC    CROP  ORGANIC SOLUBLE ORGANIC TILENO3
         (mm)    (mm)    (mm)    (mm)    (mm)    (mm)    (mm)    (mm)    (mm)    (mm)   (t/ha)  ------------------(kg nutrient/ha)-------------------- (kg/ha)
    1   88.40   50.62   23.41    0.09    1.49    0.00   90.31    2.19    2.21   74.10    4.71    0.00    0.05    0.04    0.00    11.19    0.00    1.37    0.00
    2   60.50   29.23   24.27    0.10    1.30    0.00   92.97    2.47    2.49   53.61    0.00    0.00    0.05    0.03    0.00     5.22    0.00    0.64    0.00
    3   51.10   22.69   23.77    0.10    1.65    0.00   92.57    3.58    4.03   46.57    2.61    0.00    0.05    0.04    0.00     3.43    0.00    0.42    0.00
    4   32.50    9.95   19.77    0.11    1.33    0.00   92.36    3.78    4.34   29.85    0.00    0.00    0.04    0.03    0.00     0.67    0.00    0.08    0.00
    5    3.60    0.14    7.63    0.11    0.01    0.00   91.38    3.35    4.02    7.90    0.00    0.00    0.01    0.00    0.00     0.00    0.00    0.00    0.00
    6   38.60   13.60   15.07    0.12    1.36    0.00   93.53    2.40    2.42   28.79    1.27    0.00    0.03    0.03    0.00     1.59    0.00    0.19    0.00
    7   32.30    9.97   17.14    0.12    1.51    0.00   93.43    2.64    2.66   27.24    0.00    0.00    0.03    0.04    0.00     1.05    0.00    0.13    0.00
    8   29.50    8.32   17.08    0.13    1.37    0.00   93.25    2.90    2.99   25.54    0.57    0.00    0.03    0.04    0.00     0.70    0.00    0.09    0.00
    9   29.20    8.12   16.88    0.14    1.32    0.00   93.44    2.76    2.79   25.15    0.06    0.00    0.03    0.04    0.00     0.74    0.00    0.09    0.00
   10    2.50    0.07    6.31    0.14    0.01    0.00   92.04    3.21    3.70    6.54    0.00    0.00    0.01    0.00    0.00     0.00    0.00    0.00    0.00
   11    1.30    0.01    2.30    0.15    0.01    0.00   90.25    2.97    3.85    2.46    0.00    0.00    0.00    0.00    0.00     0.00    0.00    0.00    0.00
   12    0.50    0.00    0.82    0.16    0.01    0.00   88.26    2.50    4.21    0.98    0.00    0.00    0.00    0.00    0.00     0.00    0.00    0.00    0.00
   13    0.50    0.00    0.30    0.16    0.00    0.00   86.41    2.34    4.87    0.46    0.00    0.00    0.00    0.00    0.00     0.00    0.00    0.00    0.00
   14    7.10    0.34    1.75    0.16    0.00    0.00   86.76    3.90    6.06    2.26    0.00    0.00    0.00    0.00    0.00     0.00    0.00    0.00    0.00
   15    0.00    0.00    0.61    0.17    0.00    0.00   84.11    2.66    6.64    0.78    0.00    0.00    0.00    0.00    0.00     0.00    0.00    0.00    0.00
   16   45.50   16.64   11.68    0.17    0.66    0.00   90.15    4.45    5.38   28.48    2.59    0.00    0.01    0.01    0.00     2.66    0.00    0.32    0.00
   17    0.50    0.00    4.07    0.17    0.00    0.00   87.95    2.70    4.28    4.27    0.00    0.00    0.00    0.00    0.00     0.00    0.00    0.00    0.00
   18    0.00    0.00    1.43    0.18    0.00    0.00   85.91    2.05    4.82    1.62    0.00    0.00    0.00    0.00    0.00     0.00    0.00    0.00    0.00
   19    2.80    0.01    0.93    0.18    0.00    0.00   84.99    3.07    5.15    1.12    0.00    0.00    0.00    0.00    0.00     0.00    0.00    0.00    0.00
   20    8.10    0.08    2.28    0.18    0.00    0.00   86.37    3.66    5.20    2.54    0.00    0.00    0.00    0.00    0.00     0.00    0.00    0.00    0.00
   21    1.00    0.00    0.79    0.18    0.00    0.00   84.17    3.20    5.50    0.98    0.00    0.00    0.00    0.00    0.00     0.00    0.00    0.00    0.00
   22    5.30    0.01    1.45    0.18    0.00    0.00   83.83    3.83    6.58    1.66    0.00    0.00    0.00    0.00    0.00     0.00    0.00    0.00    0.00
   23    1.30    0.00    0.58    0.18    0.00    0.00   81.69    3.34    7.09    0.77    0.00    0.00    0.00    0.00    0.00     0.00    0.00    0.00    0.00
   24   11.20    0.08    3.01    0.18    0.00    0.00   84.39    4.11    5.80    3.28    0.00    0.00    0.00    0.00    0.00     0.00    0.00    0.00    0.00
   25   44.40   15.91   13.18    0.18    0.72    0.00   90.20    3.22    3.50   29.27    1.16    0.00    0.01    0.01    0.00     1.35    0.00    0.17    0.00
   26   33.80   10.37   15.96    0.19    0.91    0.00   91.87    3.33    3.65   26.53    0.20    0.00    0.02    0.02    0.00     1.30    0.00    0.16    0.00
   27    5.60    0.23    7.00    0.19    0.05    0.00   90.30    4.69    5.73    7.44    0.00    0.00    0.01    0.00    0.00     0.00    0.00    0.00    0.00
   28    0.50    0.00    2.46    0.19    0.00    0.00   87.69    3.11    5.31    2.66    0.00    0.00    0.00    0.00    0.00     0.00    0.00    0.00    0.00
   29    0.80    0.00    0.87    0.19    0.00    0.00   85.57    2.93    5.71    1.07    0.00    0.00    0.00    0.00    0.00     0.00    0.00    0.00    0.00
   30    4.80    0.03    1.33    0.19    0.00    0.00   85.17    3.60    6.09    1.57    0.00    0.00    0.00    0.00    0.00     0.00    0.00    0.00    0.00
   31    6.40    0.05    1.95    0.19    0.00    0.00   85.51    3.74    5.79    2.20    0.00    0.00    0.00    0.00    0.00     0.00    0.00    0.00    0.00
    1  549.60  196.48  246.11    4.89   13.74    0.00   85.51   98.67  142.85  447.69   13.19    0.01    0.41    0.33    0.00    29.91    0.02    3.65    0.00
   32    1.00    0.00    0.68    0.19    0.00    0.00   83.57    2.95    5.40    0.88    0.00    0.00    0.00    0.00    0.00     0.00    0.00    0.00    0.00
   33    3.00    0.00    0.78    0.19    0.00    0.00   82.36    3.39    7.01    0.98    0.00    0.00    0.00    0.00    0.00     0.00    0.00    0.00    0.00
   34    0.50    0.00    0.27    0.19    0.00    0.00   80.60    2.27    6.30    0.47    0.00    0.00    0.00    0.00    0.00     0.00    0.00    0.00    0.00
   35    0.00    0.00    0.10    0.19    0.00    0.00   79.01    1.59    6.39    0.29    0.00    0.00    0.00    0.00    0.00     0.00    0.00    0.00    0.00
   36    0.00    0.00    0.03    0.19    0.00    0.00   77.68    1.34    6.34    0.23    0.00    0.00    0.00    0.00    0.00     0.00    0.00    0.00    0.00
   37    0.00    0.00    0.01    0.18    0.00    0.00   76.82    0.86    4.48    0.21    0.00    0.00    0.00    0.00    0.00     0.00    0.00    0.00    0.00
   38    0.00    0.00    0.00    0.18    0.00    0.00   75.43    1.40    5.43    0.20    0.00    0.00    0.00    0.00    0.02     0.00    0.00    0.00    0.00
   39   25.10    2.49    5.89    0.18    0.01    0.00   83.73    5.24    6.63    8.58    0.41    0.00    0.00    0.00    0.34     0.38    0.00    0.05    0.00
   40   26.40    5.64   10.19    0.18    0.35    0.00   86.67    4.92    5.90   16.01    0.00    0.01    0.00    0.01    0.39     0.36    0.00    0.04    0.00
   41    0.00    0.00    3.55    0.18    0.00    0.00   83.37    3.30    6.18    3.75    0.00    0.00    0.00    0.00    0.43     0.00    0.00    0.00    0.00
   42    0.00    0.00    1.25    0.18    0.00    0.00   80.57    2.80    6.18    1.43    0.00    0.00    0.00    0.00    0.46     0.00    0.00    0.00    0.00
   43    3.00    0.03    0.91    0.18    0.00    0.00   78.88    3.94    6.51    1.13    0.00    0.00    0.00    0.00    0.56     0.00    0.00    0.00    0.00
   44    2.00    0.00    0.58    0.17    0.00    0.00   76.68    3.81    5.89    0.76    0.00    0.00    0.00    0.00    0.62     0.00    0.00    0.00    0.00
   45   25.90    3.78    6.72    0.17    0.12    0.00   84.12    4.53    4.66   10.67    0.06    0.02    0.00    0.00    0.65     0.08    0.00    0.01    0.00
   46   17.30    2.08    8.09    0.17    0.32    0.00   86.06    4.09    4.10   10.35    0.00    0.01    0.00    0.00    0.53     0.01    0.00    0.00    0.00
   47    2.30    0.03    3.15    0.17    0.00    0.00   82.37    5.46    6.39    3.36    0.00    0.00    0.00    0.00    0.46     0.00    0.00    0.00    0.00
   48    4.10    0.09    1.92    0.17    0.00    0.00   81.95    3.18    3.33    2.19    0.00    0.00    0.00    0.00    0.43     0.00    0.00    0.00    0.00
   49   13.50    1.00    4.41    0.17    0.10    0.00   84.85    3.75    3.76    5.58    0.00    0.00    0.01    0.00    0.42     0.00    0.00    0.00    0.00
   50    2.00    0.01    1.82    0.16    0.00    0.00   81.98    4.44    4.69    2.00    0.00    0.00    0.00    0.00    0.30     0.00    0.00    0.00    0.00
   51   30.00    7.02    9.69    0.16    0.56    0.00   86.39    4.06    4.06   16.87    0.01    0.00    0.01    0.00    0.42     0.01    0.00    0.00    0.00
   52   51.60   21.57   17.85    0.16    1.09    0.00   88.92    4.08    4.09   39.58    0.03    0.00    0.02    0.01    0.29     0.05    0.00    0.01    0.00
   53    0.30    0.00    6.23    0.16    0.00    0.00   86.07    3.15    3.68    6.42    0.00    0.00    0.01    0.00    0.27     0.00    0.00    0.00    0.00
   54    0.80    0.00    2.19    0.16    0.00    0.00   83.02    3.86    4.65    2.37    0.00    0.00    0.00    0.00    0.16     0.00    0.00    0.00    0.00
   55   30.70    7.38    9.22    0.16    0.44    0.00   88.04    4.85    4.86   16.77    0.02    0.00    0.01    0.00    0.14     0.02    0.00    0.00    0.00
   56   30.50    8.12   13.19    0.16    0.69    0.00   89.46    4.91    5.04   21.48    0.01    0.01    0.01    0.01    0.16     0.02    0.00    0.00    0.00
   57   45.50   17.91   17.91    0.16    1.33    0.00   91.84    3.36    3.36   35.98    0.05    0.01    0.01    0.01    0.16     0.05    0.00    0.01    0.00
   58   35.80   11.88   18.51    0.17    1.51    0.00   90.62    4.76    4.87   30.56    0.00    0.00    0.01    0.01    0.05     0.02    0.00    0.00    0.00
   59    0.30    0.00    6.47    0.17    0.00    0.00   87.77    3.15    4.05    6.66    0.00    0.00    0.00    0.00    0.04     0.00    0.00    0.00    0.00
    2  351.60   89.03  151.61    4.86    6.53    0.00   87.77   99.42  144.23  245.72    0.60    0.08    0.11    0.05    7.29     1.01    0.00    0.12    0.00
   60    5.10    0.16    3.38    0.17    0.00    0.00   86.07    4.96    5.69    3.72    0.00    0.00    0.00    0.00    0.05     0.00    0.00    0.00    0.00
   61    6.60    0.22    2.71    0.17    0.00    0.00   85.90    4.23    4.70    3.11    0.00    0.00    0.00    0.00    0.05     0.00    0.00    0.00    0.00
   62    8.60    0.37    3.04    0.17    0.01    0.00   85.51    5.40    5.89    3.59    0.00    0.00    0.00    0.00    0.05     0.00    0.00    0.00    0.00
   63    3.60    0.04    1.74    0.17    0.00    0.00   83.59    4.44    4.95    1.97    0.00    0.00    0.00    0.00    0.13     0.00    0.00    0.00    0.00
   64    0.00    0.00    0.61    0.17    0.00    0.00   79.89    3.71    5.49    0.80    0.00    0.00    0.00    0.00    0.09     0.00    0.00    0.00    0.00
   65   47.20   14.16   11.08    0.18    0.61    0.00   90.75    4.79    4.80   25.42    0.03    0.01    0.00    0.00    0.14     0.02    0.00    0.00    0.00
   66    1.00    0.00    3.87    0.18    0.01    0.00   88.62    3.12    3.38    4.06    0.00    0.00    0.00    0.00    0.08     0.00    0.00    0.00    0.00
   67    7.60    0.47    3.21    0.18    0.01    0.00   88.08    4.82    5.04    3.86    0.00    0.00    0.00    0.00    0.05     0.00    0.00    0.00    0.00
   68    4.30    0.18    2.00    0.18    0.01    0.00   85.88    4.98    5.40    2.37    0.00    0.00    0.00    0.00    0.06     0.00    0.00    0.00    0.00
   69    2.00    0.04    0.94    0.18    0.01    0.00   83.49    3.98    4.36    1.16    0.00    0.00    0.00    0.00    0.11     0.00    0.00    0.00    0.00
   70    0.00    0.00    0.33    0.17    0.01    0.00   80.11    3.38    4.92    0.51    0.00    0.00    0.00    0.00    0.06     0.00    0.00    0.00    0.00
   71    0.50    0.00    0.12    0.17    0.01    0.00   77.41    3.20    4.55    0.30    0.00    0.00    0.00    0.00    0.08     0.00    0.00    0.00    0.00
   72   52.30   19.51   11.26    0.17    0.54    0.00   87.79    4.55    4.56   30.94    0.04    0.00    0.00    0.00    0.09     0.03    0.00    0.00    0.00
   73   30.00    7.89   13.43    0.17    0.67    0.00   90.21    4.36    4.36   21.50    0.00    0.00    0.00    0.00    0.08     0.01    0.00    0.00    0.00
   74    3.00    0.09    5.21    0.17    0.01    0.00   88.16    4.16    4.40    5.49    0.00    0.00    0.00    0.00    0.04     0.00    0.00    0.00    0.00
   75    1.00    0.00    1.83    0.17    0.01    0.00   83.52    5.65    7.34    2.02    0.00    0.00    0.00    0.00    0.02     0.00    0.00    0.00    0.00
   76    6.40    0.28    2.10    0.17    0.00    0.00   81.49    5.92    7.65    2.57    0.00    0.00    0.00    0.00    0.07     0.00    0.00    0.00    0.00
   77    0.30    0.00    0.74    0.17    0.00    0.00   77.97    3.81    6.13    0.92    0.00    0.00    0.00    0.00    0.05     0.00    0.00    0.00    0.00
   78    0.30    0.00    0.26    0.17    0.00    0.00   74.94    3.34    5.25    0.44    0.00    0.00    0.00    0.00    0.05     0.00    0.00    0.00    0.00
   79    4.80    0.02    1.10    0.17    0.00    0.00   73.74    4.44    5.40    1.30    0.00    0.00    0.00    0.00    0.04     0.00    0.00    0.00    0.00
   80    0.00    0.00    0.38    0.17    0.00    0.00   70.30    3.45    5.73    0.56    0.00    0.00    0.00    0.00    0.04     0.00    0.00    0.00    0.00
   81    0.00    0.00    0.13    0.17    0.00    0.00   67.16    3.15    5.74    0.31    0.00    0.00    0.00    0.00    0.04     0.00    0.00    0.00    0.00
   82   10.20    0.05    2.50    0.17    0.00    0.00   68.63    4.91    6.16    2.73    0.00    0.00    0.00    0.00    0.04     0.00    0.00    0.00    0.00
   83   19.10    1.54    5.67    0.16    0.00    0.00   73.82    4.98    5.81    7.38    0.01    0.00    0.00    0.00    0.04     0.00    0.00    0.00    0.00
   84    0.00    0.00    1.97    0.16    0.00    0.00   70.21    3.62    5.35    2.14    0.00    0.00    0.00    0.00    0.04     0.00    0.00    0.00    0.00
   85    0.00    0.00    0.68    0.16    0.00    0.00   66.34    3.87    6.28    0.85    0.00    0.00    0.00    0.00    0.04     0.00    0.00    0.00    0.00
   86    0.00    0.00    0.24    0.16    0.00    0.00   62.72    3.63    6.91    0.41    0.00    0.00    0.00    0.00    0.04     0.00    0.00    0.00    0.00
   87    8.60    0.02    2.10    0.16    0.00    0.00   63.68    4.53    5.23    2.29    0.00    0.00    0.00    0.00    0.03     0.00    0.00    0.00    0.00
   88    0.30    0.00    0.73    0.15    0.00    0.00   61.12    2.86    4.30    0.89    0.00    0.00    0.00    0.00    0.03     0.00    0.00    0.00    0.00
   89    0.00    0.00    0.25    0.15    0.00    0.00   57.79    3.34    5.68    0.41    0.00    0.00    0.00    0.00    0.03     0.00    0.00    0.00    0.00
   90    0.00    0.00    0.09    0.15    0.00    0.00   54.60    3.20    5.83    0.25    0.00    0.00    0.00    0.00    0.03     0.00    0.00    0.00    0.00
    3  222.80   45.06   83.70    5.23    1.91    0.00   54.60  128.78  167.28  134.27    0.09    0.02    0.01    0.00    1.80     0.07    0.00    0.01    0.00
   91   43.70    6.40   11.01    0.15    0.02    0.00   72.55    2.45    2.46   17.56    0.02    0.00    0.00    0.00    0.03     0.01    0.00    0.00    0.00
[...]
     32   3   AUA        .103E-03   66.00  165.80    4.39    0.00    0.00    0.00    0.20 3485.48  837.27 1532.81 1060.99    0.36    1.88    4.06   17.90   12.53  837.27
     33   3   FAGASA     .513E-02   77.00   97.20    7.96    0.00    0.00    0.00    0.20 3485.48 1135.86 1356.99  977.70    3.94    1.79   26.21   14.82   10.37 1135.86
     34   3   AUA        .154E-02   77.00  165.80    3.18    0.00    0.00    0.00    0.20 3485.48 1342.01 1001.35 1077.54    0.72    1.19    7.39   17.61   12.32 1342.01
     35   3   URBAN LA   .349E-02   77.00    1.50    2.14    0.00    0.00    0.00    0.20 3485.48 2294.59    0.00 1172.33    0.00    0.02    0.00    0.16    0.11 2294.59
     36   3   FAGASA     .133E-02   77.00   97.20    4.03    0.00    0.00    0.00    0.20 3485.48 1238.75 1191.15 1014.46    2.01    1.84   17.88   14.02    9.81 1238.75
     37   3   AUA        .205E-03   77.00  165.80    2.94    0.00    0.00    0.00    0.20 3485.48 1342.79  998.84 1078.24    0.49    1.16    5.41   17.56   12.29 1342.79
     38   3   URBAN LA   .215E-02   77.00    1.50    1.93    0.00    0.00    0.00    0.20 3485.48 2294.59    0.00 1172.33    0.00    0.02    0.00    0.16    0.11 2294.59
     39   3   FAGASA     .103E-03   77.00   97.20    4.23    0.00    0.00    0.00    0.20 3485.48 1234.75 1197.58 1012.60    1.46    1.85   14.24   14.14    9.90 1234.75
     40   4   URBAN LA   .749E-02   77.00    1.50    1.84    0.00    0.00    0.00    0.20 3485.48 2294.54    0.00 1172.39    0.00    0.02    0.00    0.16    0.11 2294.54
     41   4   FAGASA     .102E-01   77.00   97.20    3.03    0.00    0.00    0.00    0.20 3485.48 1298.02 1085.76 1042.45    2.69    1.41   23.13   11.01    7.71 1298.02
     42   4   URBAN LA   .308E-03   77.00    1.50    0.42    0.00    0.00    0.00    0.20 3485.48 2294.56    0.00 1172.41    0.00    0.02    0.00    0.16    0.11 2293.94
     43   4   URBAN LA   .185E-02   77.00    1.50    2.37    0.00    0.00    0.00    0.20 3485.48 2294.55    0.00 1172.40    0.00    0.02    0.00    0.16    0.11 2294.52
     44   4   FAGASA     .308E-02   77.00   97.20    3.70    0.00    0.00    0.00    0.20 3485.48 1292.96 1094.88 1041.13    2.74    1.50   23.14   11.34    7.94 1292.96
     45   4   FAGASA     .174E-02   83.00   97.20    7.13    0.00  194.93    0.00    0.20 3485.48 1474.51 1080.65  921.03   58.14   38.56   69.63   24.83    8.60 1474.51
     46   4   FAGASA     .390E-02   72.00   97.20    3.40    0.00  136.96    0.00    0.20 3485.48  999.50 1352.35 1069.85    0.28   11.44    2.60   57.41   37.29  999.50
     47   4   URBAN LA   .133E-02   79.00    1.50    2.24    0.00  212.65    0.00    0.20 3485.48 2419.80    0.00 1048.34    0.00   28.22    0.00   40.31   26.19 2419.80
     48   4   URBAN LA   .308E-03   77.00    1.50    0.08    0.00    0.00    0.00    0.20 3485.48 2296.21    0.00 1170.68    0.00    0.02    0.00    0.11    0.08 2291.47
     49   4   URBAN LA   .103E-02   77.00    1.50    0.40    0.00    0.00    0.00    0.20 3485.48 2296.21    0.00 1170.68    0.00    0.02    0.00    0.11    0.08 2295.57
     50   4   URBAN LA   .224E-01   77.00    1.50    1.84    0.00    0.00    0.00    0.20 3485.48 2296.19    0.00 1170.67    0.00    0.02    0.00    0.11    0.08 2296.19
     51   4   FAGASA     .308E-03   70.00   97.20    0.07    0.00    0.00    0.00    0.20 3485.48  999.19 1309.57 1042.97    0.09    0.02    1.86    5.87    4.11  996.87
     52   4   FAGASA     .103E-03   70.00   97.20    0.17    0.00    0.00    0.00    0.20 3485.48  999.02 1310.26 1042.86    0.27    0.04    4.28    5.86    4.11  998.22
     53   4   FAGASA     .620E+00   70.00   97.20   10.14    0.00    0.00    0.00    0.20 3485.48  862.55 1649.44  953.89   31.39    2.24   50.95   12.16    8.51  862.55
     54   4   FAGASA     .554E-02   77.00   97.20    4.27    0.00    0.00    0.00    0.20 3485.48 1233.93 1198.86 1012.24    2.51    1.83   20.55   14.11    9.88 1233.93
     55   4   URBAN LA   .174E-02   83.00    1.50    2.02    0.00    0.00    0.00    0.20 3485.48 2350.45    0.00 1121.26    0.00    0.02    0.00    0.16    0.11 2350.45
     56   5   AUA        .410E-03   59.00  165.80    3.64    0.00  134.91    0.00    0.20 3485.48  560.21 1765.49 1100.97    0.08   12.45    0.79   59.06   38.35  560.21
     57   5   FAGASA     .616E-03   72.00   97.20    8.28    0.00  133.71    0.00    0.20 3485.48  763.76 1696.04 1010.78    0.44   15.13    3.49   51.18   33.08  763.76
     58   5   AUA        .103E-03   55.00  165.80    0.38    0.00    0.00    0.00    0.20 3485.48  514.89 1727.73 1084.27    0.12    0.04    1.64    9.43    6.60  514.80
     59   5   AUA        .514E-01   55.00  165.80    3.91    0.00    0.00    0.00    0.20 3485.48  505.19 1816.12 1065.34    3.12    1.40   22.06   11.44    8.01  505.19
     60   5   URBAN LA   .144E-02   77.00    1.50    2.25    0.00    0.00    0.00    0.20 3485.48 2296.23    0.00 1170.60    0.00    0.02    0.00    0.11    0.08 2296.23
     61   5   FAGASA     .103E-03   70.00   97.20    0.07    0.00    0.00    0.00    0.20 3485.48  999.18 1309.57 1042.96    0.02    0.02    0.43    5.87    4.11  995.16
     62   5   FAGASA     .463E+00   70.00   97.20   12.33    0.00    0.00    0.00    0.20 3485.48  862.57 1650.20  953.86   36.88    2.25   52.20   12.15    8.51  862.57
     63   5   FAGASA     .821E-03   91.00   97.20   13.09    0.00    0.00    0.00    0.20 3485.48 1902.51  769.69  810.52  408.62    2.12   55.21    0.00    0.00 1902.51
     64   5   AUA        .103E-03   91.00  165.80    0.44    0.00    0.00    0.00    0.20 3485.48 2297.26  156.80  984.45    7.84    0.41   49.02    0.00    0.00 2296.29
     65   5   AUA        .132E-01   91.00  165.80    3.67    0.00    0.00    0.00    0.20 3485.48 2275.09  231.92  945.89  135.59    1.63   51.12    0.00    0.00 2275.09
     66   5   URBAN LA   .205E-03   91.00    1.50    2.61    0.00    0.00    0.00    0.20 3485.48 2496.34    0.00  980.84    0.00    0.07    0.00    0.00    0.00 2496.34
     67   5   AUA        .215E-02   91.00  165.80    3.86    0.00    0.00    0.00    0.20 3485.48 2211.25  370.83  901.48  112.11    1.65   51.25    0.00    0.00 2211.25
     68   6   AUA        .236E-02   91.00  165.80    2.89    0.00    0.00    0.00    0.20 3485.48 2278.58  216.44  951.40   86.88    1.57   51.46    0.00    0.00 2278.58
     69   6   URBAN LA   .534E-02   91.00    1.50    2.56    0.00    0.00    0.00    0.20 3485.48 2496.19    0.00  981.00    0.00    0.07    0.00    0.00    0.00 2496.19
     70   6   AUA        .103E-03   66.00  165.80    4.10    0.00    0.00    0.00    0.20 3485.48  839.01 1528.75 1062.32    0.34    1.85    3.84   17.82   12.48  839.01
     71   6   AUA        .554E-02   55.00  165.80    3.99    0.00    0.00    0.00    0.20 3485.48  505.12 1816.91 1065.15    2.42    1.42   19.50   11.48    8.03  505.12
     72   6   URBAN LA   .103E-03   77.00    1.50    0.31    0.00    0.00    0.00    0.20 3485.48 2296.16    0.00 1170.73    0.00    0.02    0.00    0.11    0.08 2295.39
     73   6   URBAN LA   .698E-02   77.00    1.50    2.56    0.00    0.00    0.00    0.20 3485.48 2296.14    0.00 1170.72    0.00    0.02    0.00    0.11    0.08 2296.14
     74   6   FAGASA     .205E-02   70.00   97.20   13.33    0.00    0.00    0.00    0.20 3485.48  862.53 1650.41  953.91   20.86    2.27   47.21   12.17    8.52  862.53
     75   6   AUA        .616E-03   70.00  165.80    4.55    0.00    0.00    0.00    0.20 3485.48  997.57 1391.72 1042.14    4.51    2.24   29.27   13.01    9.11  997.57
     76   6   URBAN LA   .616E-03   70.00    1.50    2.54    0.00    0.00    0.00    0.20 3485.48 2247.05    0.00 1211.87    0.00    0.01    0.00    0.12    0.08 2247.05
     77   7   AUA        .154E-02   55.00  165.80    2.82    0.00    0.00    0.00    0.20 3485.48  506.86 1800.00 1068.77    1.53    1.23   14.57   11.11    7.77  506.86
     78   7   URBAN LA   .103E-03   77.00    1.50    0.07    0.00    0.00    0.00    0.20 3485.48 2296.14    0.00 1170.76    0.00    0.02    0.00    0.11    0.08 2284.97
     79   7   URBAN LA   .103E-03   77.00    1.50    0.21    0.00    0.00    0.00    0.20 3485.48 2296.14    0.00 1170.76    0.00    0.02    0.00    0.11    0.08 2294.41
     80   7   URBAN LA   .852E-02   77.00    1.50    1.76    0.00    0.00    0.00    0.20 3485.48 2296.13    0.00 1170.75    0.00    0.02    0.00    0.11    0.08 2296.12
     81   7   FAGASA     .103E-03   70.00   97.20    0.10    0.00    0.00    0.00    0.20 3485.48  999.17 1309.69 1042.98    0.11    0.03    1.91    5.87    4.11  997.79
     82   7   FAGASA     .205E-03   70.00   97.20    0.28    0.00    0.00    0.00    0.20 3485.48  998.80 1311.29 1042.73    0.65    0.06    8.97    5.86    4.10  998.46
     83   7   FAGASA     .204E-01   70.00   97.20    5.01    0.00    0.00    0.00    0.20 3485.48  932.08 1521.13  987.03   12.03    2.14   43.56   10.99    7.69  932.08
     84   7   URBAN LA   .472E-02   70.00    1.50    2.58    0.00    0.00    0.00    0.20 3485.48 2247.01    0.00 1211.96    0.00    0.01    0.00    0.12    0.08 2246.98
     85   7   FAGASA     .103E-03   70.00   97.20    0.28    0.00    0.00    0.00    0.20 3485.48  998.79 1311.28 1042.74    0.57    0.06    7.79    5.86    4.10  998.46
     86   7   FAGASA     .923E-03   70.00   97.20    2.92    0.00    0.00    0.00    0.20 3485.48  974.78 1403.48 1032.84    7.85    1.48   44.30    6.96    4.87  974.78
     87   7   URBAN LA   .123E-02   70.00    1.50    2.65    0.00    0.00    0.00    0.20 3485.48 2247.01    0.00 1211.96    0.00    0.01    0.00    0.12    0.08 2246.98
     88   8   FAGASA     .133E-02   70.00   97.20    3.54    0.00    0.00    0.00    0.20 3485.48  946.59 1489.38 1000.33    6.87    2.12   39.27    9.96    6.97  946.59
     89   8   URBAN LA   .287E-02   70.00    1.50    0.31    0.00    0.00    0.00    0.20 3485.48 2247.20    0.00 1211.78    0.00    0.01    0.00    0.12    0.08 2246.42
     90   8   URBAN LA   .135E-01   70.00    1.50    2.34    0.00    0.00    0.00    0.20 3485.48 2247.19    0.00 1211.78    0.00    0.01    0.00    0.12    0.08 2247.15
     91   8   URBAN LA   .103E-02   70.00    1.50    0.38    0.00    0.00    0.00    0.20 3485.48 2247.20    0.00 1211.78    0.00    0.01    0.00    0.12    0.08 2246.53
     92   8   URBAN LA   .287E-02   70.00    1.50    2.01    0.00    0.00    0.00    0.20 3485.48 2247.19    0.00 1211.78    0.00    0.01    0.00    0.12    0.08 2247.15
     93   8   FAGASA     .103E-03   72.00   97.20    2.87    0.00  137.11    0.00    0.20 3485.48 1005.41 1342.29 1070.74    0.08   10.93    0.70   57.57   37.39 1005.41
     94   8   FAGASA     .103E-03   70.00   97.20    0.07    0.00    0.00    0.00    0.20 3485.48  999.21 1309.48 1043.00    0.02    0.02    0.43    5.87    4.11  995.19
     95   8   FAGASA     .211E+00   70.00   97.20   10.17    0.00    0.00    0.00    0.20 3485.48  862.54 1649.45  953.90   27.69    2.25   49.87   12.16    8.51  862.54
     96   8   URBAN LA   .103E-03   77.00    1.50    0.15    0.00    0.00    0.00    0.20 3485.48 2296.19    0.00 1170.70    0.00    0.02    0.00    0.11    0.08 2293.90
     97   8   URBAN LA   .441E-02   77.00    1.50    0.33    0.00    0.00    0.00    0.20 3485.48 2296.19    0.00 1170.70    0.00    0.02    0.00    0.11    0.08 2295.45
     98   8   URBAN LA   .271E-01   77.00    1.50    2.69    0.00    0.00    0.00    0.20 3485.48 2296.19    0.00 1170.70    0.00    0.02    0.00    0.11    0.08 2296.15
     99   8   FAGASA     .554E-02   77.00   97.20    3.42    0.00    0.00    0.00    0.20 3485.48 1250.47 1171.31 1020.34    2.10    1.82   18.53   13.67    9.57 1250.47
    100   8   URBAN LA   .205E-03   94.00    1.50    2.42    0.00    0.00    0.00    0.20 3485.48 2591.58    0.00  888.64    0.00    0.09    0.00    0.00    0.00 2591.58
    101   9   FAGASA     .205E-03   72.00   97.20    8.62    0.00  133.21    0.00    0.20 3485.48  750.25 1715.59 1006.57    0.35   15.13    2.86   50.73   32.78  750.25
    102   9   URBAN LA   .103E-03   72.00    1.50    0.40    0.00  220.37    0.00    0.20 3485.48 2379.66    0.00 1078.52    0.00   26.04    0.00   42.75   27.77 2379.01
    103   9   URBAN LA   .195E-02   72.00    1.50    1.00    0.00  220.37    0.00    0.20 3485.48 2379.65    0.00 1078.52    0.00   26.04    0.00   42.75   27.77 2379.56
    104   9   FAGASA     .257E-02   72.00   97.20    2.12    0.00  141.24    0.00    0.20 3485.48 1032.58 1281.85 1077.80    0.17    7.45    1.75   58.28   37.84 1032.58
    105   9   URBAN LA   .133E-02   77.00    1.50    0.89    0.00    0.00    0.00    0.20 3485.48 2296.12    0.00 1170.78    0.00    0.02    0.00    0.11    0.08 2296.02
    106   9   FAGASA     .451E-02   70.00   97.20    4.82    0.00    0.00    0.00    0.20 3485.48  934.08 1517.01  988.68    9.77    2.15   41.85   10.90    7.63  934.08
    107   9   FAGASA     .205E-03   70.00   97.20    2.01    0.00    0.00    0.00    0.20 3485.48  997.05 1321.79 1041.06    5.24    0.26   39.30    5.84    4.09  997.03
    108   9   URBAN LA   .205E-03   70.00    1.50    0.90    0.00    0.00    0.00    0.20 3485.48 2246.96    0.00 1212.02    0.00    0.01    0.00    0.12    0.08 2246.62



                AVE MONTHLY BASIN VALUES
                   SNOW                      WATER               SED
  MON     RAIN     FALL   SURF Q    LAT Q    YIELD       ET    YIELD      PET
          (MM)     (MM)     (MM)     (MM)     (MM)     (MM)   (T/HA)     (MM)
    1   573.80     0.00   195.30   257.14   457.89    93.31    14.07   128.96
    2   248.15     0.00    69.11   115.28   190.33    83.04     2.05   125.54
    3   158.30     0.00    24.07    59.06    88.54   105.26     0.05   141.36
    4   352.75     0.00    64.49   151.21   218.37    88.23     0.16   122.62
    5   177.95     0.00    28.63    84.41   115.63    79.24     0.06   137.61
    6   251.80     0.00    73.14   100.02   175.70    73.66     0.26   113.47
    7   488.95     0.00   243.48   146.73   392.75    71.04     1.15   107.38
    8   292.00     0.00    90.69   131.56   226.25    74.52     0.69   123.74
    9   138.15     0.00    17.68    55.02    76.31    69.95     0.16   144.11
   10   162.50     0.00    35.35    59.44    96.99    64.14     0.67   170.16
   11   256.55     0.00    48.54   114.32   164.52    83.24     1.07   142.43
   12   380.10     0.00   105.81   160.93   269.60    98.66     6.87   146.69

     AVE ANNUAL BASIN STRESS DAYS
               WATER STRESS DAYS =     5.13
               TEMPERATURE STRESS DAYS =     0.11
               NITROGEN STRESS DAYS =     8.72
               PHOSPHORUS STRESS DAYS =     0.09
               AERATION STRESS DAYS =     0.01
1
    SWAT Dec 23 2016    VER 2016/Rev 664                                            

    General Input/Output section (file.cio):                                        
    2/12/2020 14:39:08 QSWAT Workflow v1.5.2                                        
                                                                                    
         AVE ANNUAL BASIN VALUES

              PRECIP =   3485.5 MM
              SNOW FALL =    0.00 MM
              SNOW MELT =     0.00 MM
              SUBLIMATION =     0.00 MM
              SURFACE RUNOFF Q =   998.07 MM
              LATERAL SOIL Q = 1437.30 MM
              TILE Q =     0.00 MM
              GROUNDWATER (SHAL AQ) Q =    38.70 MM
              GROUNDWATER (DEEP AQ) Q =     2.81 MM
              REVAP (SHAL AQ => SOIL/PLANTS) =   32.03 MM
              DEEP AQ RECHARGE =     2.72 MM
              TOTAL AQ RECHARGE =   54.30 MM
              TOTAL WATER YLD =  2476.87 MM
              PERCOLATION OUT OF SOIL =   55.34 MM
              ET =    984.4 MM
              PET =   1604.0MM
              TRANSMISSION LOSSES =     0.00 MM
              SEPTIC INFLOW =       0.00 MM
              TOTAL SEDIMENT LOADING =     27.45 T/HA
              TILE FROM IMPOUNDED WATER =     0.000 (MM)
              EVAPORATION FROM IMPOUNDED WATER =     0.000 (MM)
              SEEPAGE INTO SOIL FROM IMPOUNDED WATER =    0.000 (MM)
              OVERFLOW FROM IMPOUNDED WATER =    0.000 (MM)
1
    SWAT Dec 23 2016    VER 2016/Rev 664                                            

    General Input/Output section (file.cio):                                        
    2/12/2020 14:39:08 QSWAT Workflow v1.5.2                                        
                                                                                    
              AVE ANNUAL BASIN VALUES


              NUTRIENTS
                   ORGANIC N =    43.218 (KG/HA)
                   ORGANIC P =     5.289 (KG/HA)
                   NO3 YIELD (SQ) =     0.136 (KG/HA)
                   NO3 YIELD (LAT) =    2.013 (KG/HA)
                   NO3 YIELD (TILE) =    0.000 (KG/HA)
                   SOLP YIELD (TILE) =    0.000(KG/HA)
                   SOLP YIELD (SURF INLET RISER) =    0.000 (KG/HA)
                   SOL P YIELD =    0.073 (KG/HA)
                   NO3 LEACHED =     1.181 (KG/HA)
                   P LEACHED =     0.024 (KG/HA)
                   N UPTAKE =     9.827 (KG/HA)
                   P UPTAKE =    1.943 (KG/HA)
                   NO3 YIELD (GWQ) =     0.009 (KG/HA)
                   ACTIVE TO SOLUTION P FLOW =         0.269 (KG/HA)
                   ACTIVE TO STABLE P FLOW =         0.632 (KG/HA)
                   N FERTILIZER APPLIED =     1.541 (KG/HA)
                   P FERTILIZER APPLIED =     0.000 (KG/HA)
                   N FIXATION =     0.000 (KG/HA)
                   DENITRIFICATION =     0.194 (KG/HA)
                   HUMUS MIN ON ACTIVE ORG N =    12.731 (KG/HA)
                   ACTIVE TO STABLE ORG N =    -6.626 (KG/HA)
                   HUMUS MIN ON ACTIVE ORG P =    2.179 (KG/HA)
                   MIN FROM FRESH ORG N =    2.038 (KG/HA)
                   MIN FROM FRESH ORG P =    0.346 (KG/HA)
                   NO3 IN RAINFALL =     0.000 (KG/HA)
                   INITIAL NO3 IN SOIL =      34.654 (KG/HA)
                   FINAL NO3 IN SOIL =         6.292 (KG/HA)
                   INITIAL ORG N IN SOIL =   10492.403 (KG/HA)
                   FINAL ORG N IN SOIL =     10010.800 (KG/HA)
                   INITIAL MIN P IN SOIL =    1669.995 (KG/HA)
                   FINAL MIN P IN SOIL =      1630.291 (KG/HA)
                   INITIAL ORG P IN SOIL =    1285.320 (KG/HA)
                   FINAL ORG P IN SOIL =    1223.172 (KG/HA)
                   NO3 IN FERT =     1.541 (KG/HA)
                   AMMONIA IN FERT =     0.000 (KG/HA)
                   ORG N IN FERT =     0.000 (KG/HA)
                   MINERAL P IN FERT =     0.000 (KG/HA)
                   ORG P IN FERT =     0.000 (KG/HA)
                   N REMOVED IN YIELD =     7.399 (KG/HA)
                   P REMOVED IN YIELD =     1.532 (KG/HA)
                   AMMONIA VOLATILIZATION =     0.000 (KG/HA)
                   AMMONIA NITRIFICATION =      0.000 (KG/HA)
                   NO3 EVAP-LAYER 2 TO 1 =    3.896

                   DIE-GRO P Q =           0.0 (No/M2)
                   DIE-GRO LP Q =           0.0 (No/M2)
                   DIE-GRO P SED =          0.0 (No/M2)
                   DIE-GRO LP SED =          0.0 (No/M2)
                   BACT P RUNOFF =          0.0 (No/M2)
                   BACT LP RUNOFF =          0.0 (No/M2)
                   BACT P SEDIMENT =          0.0 (No/M2)
                   BACT LP SEDIMENT =          0.0 (No/M2)
                   BACT P INCORP =          0.0 (No/M2)
                   BACT LP INCORP =          0.0 (No/M2)

                   NITRATE SEPTIC =         0.00 (kg/ha)
                   AMMONIA SEPTIC =         0.00 (kg/ha)
                   ORG N SEPTIC =         0.00 (kg/ha)
                   FRESH ORGN SEPTIC =         0.00 (kg/ha)
                   ORG P SEPTIC =         0.00 (kg/ha)
                   FRESH ORGP SEPTIC =         0.00 (kg/ha)
                   SOL P SEPTIC =         0.00 (kg/ha)
                   BOD SEPTIC =         0.00 (kg/ha)
