1
    SWAT Dec 23 2016    VER 2016/Rev 664                                                                 0/ 0/   0      0: 0: 0

    General Input/Output section (file.cio):                                        
    2/12/2020 14:39:08 QSWAT Workflow v1.5.2                                        
                                                                                    


       SUB      GIS  MON   AREAkm2  PRECIPmm SNOMELTmm     PETmm      ETmm      SWmm    PERCmm    SURQmm    GW_Qmm    WYLDmm  SYLDt/ha ORGNkg/ha ORGPkg/haNSURQkg/ha SOLPkg/ha SEDPkg/ha LAT Q(mm)LATNO3kg/hGWNO3kg/haCHOLAmic/LCBODU mg/L DOXQ mg/L TNO3kg/ha   QTILEmm TVAPkg/ha
BIGSUB   1        0    1.14970E+00 0.269E+02 0.000E+00 0.233E+01 0.231E+01 0.829E+02 0.318E-01 0.769E+01 0.161E+00 0.156E+02 0.240E+00 0.455E+00 0.556E-01 0.261E-03 0.116E-02 0.446E-01 0.773E+01 0.746E-02 0.370E-04 .14333E-02 0.177E+02 0.111E+01 0.000E+00 0.000E+00 0.000E+00
BIGSUB   2        0    1.20992E+00 0.269E+02 0.000E+00 0.235E+01 0.231E+01 0.102E+03 0.514E+00 0.566E+01 0.356E+00 0.149E+02 0.264E+00 0.522E+00 0.639E-01 0.427E-03 0.744E-03 0.512E-01 0.887E+01 0.102E-01 0.897E-04 .20682E-02 0.210E+02 0.985E+00 0.000E+00 0.000E+00 0.000E+00
BIGSUB   3        0    1.15360E+00 0.269E+02 0.000E+00 0.233E+01 0.229E+01 0.897E+02 0.482E+00 0.512E+01 0.161E+00 0.149E+02 0.465E+00 0.769E+00 0.940E-01 0.650E-03 0.594E-03 0.756E-01 0.962E+01 0.109E-01 0.632E-04 .24578E-02 0.326E+02 0.941E+00 0.000E+00 0.000E+00 0.000E+00
BIGSUB   4        0    1.68097E+00 0.269E+02 0.000E+00 0.233E+01 0.230E+01 0.863E+02 0.104E+00 0.514E+01 0.348E-01 0.151E+02 0.424E+00 0.770E+00 0.942E-01 0.561E-03 0.528E-03 0.757E-01 0.989E+01 0.967E-02 0.358E-05 .25127E-02 0.314E+02 0.936E+00 0.000E+00 0.000E+00 0.000E+00
BIGSUB   5        0    1.53384E+00 0.269E+02 0.000E+00 0.233E+01 0.231E+01 0.990E+02 0.678E+00 0.432E+01 0.263E+00 0.145E+02 0.517E+00 0.861E+00 0.105E+00 0.474E-03 0.303E-03 0.847E-01 0.986E+01 0.947E-02 0.102E-03 .47085E-02 0.428E+02 0.856E+00 0.000E+00 0.000E+00 0.000E+00
BIGSUB   6        0    1.23701E-01 0.269E+02 0.000E+00 0.233E+01 0.232E+01 0.720E+02 0.162E+01 0.138E+02 0.646E+00 0.171E+02 0.116E+00 0.238E+00 0.291E-01 0.576E-03 0.229E-02 0.233E-01 0.267E+01 0.357E-02 0.247E-03 .57223E-02 0.241E+02 0.123E+01 0.000E+00 0.000E+00 0.000E+00
BIGSUB   7        0    1.37963E-01 0.269E+02 0.000E+00 0.233E+01 0.231E+01 0.650E+02 0.663E+00 0.966E+01 0.356E+00 0.158E+02 0.936E-01 0.325E+00 0.398E-01 0.244E-03 0.154E-02 0.315E-01 0.573E+01 0.772E-02 0.890E-04 .12024E-02 0.958E+01 0.111E+01 0.000E+00 0.000E+00 0.000E+00
BIGSUB   8        0    1.27046E+00 0.269E+02 0.000E+00 0.233E+01 0.231E+01 0.756E+02 0.151E-01 0.700E+01 0.109E-01 0.155E+02 0.320E+00 0.623E+00 0.762E-01 0.393E-03 0.930E-03 0.612E-01 0.851E+01 0.812E-02 0.104E-05 .19980E-02 0.243E+02 0.102E+01 0.000E+00 0.000E+00 0.000E+00
BIGSUB   9        0    1.11081E-01 0.269E+02 0.000E+00 0.233E+01 0.215E+01 0.678E+02 0.302E+01 0.951E+01 0.918E+00 0.153E+02 0.573E-01 0.231E+00 0.284E-01 0.678E-02 0.196E-02 0.223E-01 0.485E+01 0.131E-01 0.230E-03 .11334E-02 0.629E+01 0.109E+01 0.000E+00 0.000E+00 0.000E+00
BIGSUB   1        0    2.14970E+00 0.100E+01 0.000E+00 0.390E+01 0.331E+01 0.806E+02 0.671E-02 0.686E-04 0.160E+00 0.282E+01 0.468E-09 0.100E-08 0.100E-08 0.117E-08 0.132E-07 0.200E-08 0.266E+01 0.256E-02 0.358E-04 .49807E-12 0.000E+00 0.234E+00 0.000E+00 0.000E+00 0.000E+00
BIGSUB   2        0    2.20992E+00 0.100E+01 0.000E+00 0.391E+01 0.319E+01 0.998E+02 0.293E-02 0.334E-02 0.354E+00 0.343E+01 0.848E-09 0.989E-09 0.989E-09 0.186E-06 0.611E-06 0.198E-08 0.306E+01 0.353E-02 0.873E-04 .66948E-08 0.000E+00 0.282E+00 0.000E+00 0.000E+00 0.000E+00
BIGSUB   3        0    2.15360E+00 0.100E+01 0.000E+00 0.390E+01 0.309E+01 0.876E+02 0.138E-02 0.846E-03 0.160E+00 0.352E+01 0.807E-09 0.280E-08 0.119E-08 0.427E-07 0.226E-06 0.212E-08 0.335E+01 0.384E-02 0.619E-04 .67734E-10 0.000E+00 0.292E+00 0.000E+00 0.000E+00 0.000E+00
BIGSUB   4        0    2.68097E+00 0.100E+01 0.000E+00 0.390E+01 0.309E+01 0.842E+02 0.129E-02 0.402E-02 0.347E-01 0.346E+01 0.222E-09 0.109E-06 0.137E-07 0.152E-06 0.791E-06 0.787E-08 0.342E+01 0.344E-02 0.354E-05 .25853E-08 0.000E+00 0.287E+00 0.000E+00 0.000E+00 0.000E+00
BIGSUB   5        0    2.53384E+00 0.100E+01 0.000E+00 0.390E+01 0.306E+01 0.970E+02 0.127E-03 0.490E-03 0.261E+00 0.377E+01 0.211E-09 0.649E-05 0.794E-06 0.524E-07 0.104E-06 0.616E-06 0.350E+01 0.342E-02 0.100E-03 .10908E-06 0.000E+00 0.313E+00 0.000E+00 0.000E+00 0.000E+00
BIGSUB   6        0    2.23701E-01 0.100E+01 0.000E+00 0.390E+01 0.350E+01 0.695E+02 0.866E-02 0.150E-01 0.642E+00 0.188E+01 0.378E-08 0.204E-06 0.246E-07 0.386E-05 0.277E-05 0.218E-07 0.119E+01 0.165E-02 0.242E-03 .15015E-06 0.000E+00 0.156E+00 0.000E+00 0.000E+00 0.000E+00
BIGSUB   7        0    2.37963E-01 0.100E+01 0.000E+00 0.390E+01 0.340E+01 0.625E+02 0.109E-01 0.277E-01 0.354E+00 0.243E+01 0.262E-08 0.284E-04 0.348E-05 0.390E-06 0.542E-05 0.264E-05 0.203E+01 0.276E-02 0.870E-04 .94238E-08 0.000E+00 0.202E+00 0.000E+00 0.000E+00 0.000E+00
BIGSUB   8        0    2.27046E+00 0.100E+01 0.000E+00 0.390E+01 0.321E+01 0.734E+02 0.534E-02 0.325E-01 0.108E-01 0.297E+01 0.448E-09 0.163E-08 0.108E-08 0.216E-06 0.603E-05 0.205E-08 0.293E+01 0.279E-02 0.101E-05 .75267E-08 0.000E+00 0.247E+00 0.000E+00 0.000E+00 0.000E+00
BIGSUB   9        0    2.11081E-01 0.100E+01 0.000E+00 0.390E+01 0.319E+01 0.656E+02 0.967E-02 0.466E-01 0.915E+00 0.286E+01 0.715E-08 0.221E-04 0.270E-05 0.363E-04 0.904E-05 0.211E-05 0.186E+01 0.646E-02 0.229E-03 .14012E-05 0.000E+00 0.237E+00 0.000E+00 0.000E+00 0.000E+00
BIGSUB   1        0    3.14970E+00 0.155E+02 0.000E+00 0.472E+01 0.415E+01 0.816E+02 0.311E+00 0.310E+01 0.159E+00 0.873E+01 0.349E-01 0.650E-01 0.794E-02 0.108E-03 0.530E-03 0.638E-02 0.546E+01 0.797E-02 0.350E-04 .20015E-04 0.741E+00 0.689E+00 0.000E+00 0.000E+00 0.000E+00
BIGSUB   2        0    3.20992E+00 0.155E+02 0.000E+00 0.473E+01 0.402E+01 0.101E+03 0.670E+00 0.184E+01 0.352E+00 0.846E+01 0.407E-01 0.816E-01 0.100E-01 0.201E-03 0.286E-03 0.801E-02 0.626E+01 0.981E-02 0.858E-04 .71989E-04 0.119E+01 0.646E+00 0.000E+00 0.000E+00 0.000E+00
BIGSUB   3        0    3.15360E+00 0.155E+02 0.000E+00 0.471E+01 0.394E+01 0.888E+02 0.305E+00 0.122E+01 0.160E+00 0.831E+01 0.683E-01 0.112E+00 0.137E-01 0.269E-03 0.177E-03 0.111E-01 0.692E+01 0.106E-01 0.610E-04 .28148E-04 0.133E+01 0.637E+00 0.000E+00 0.000E+00 0.000E+00
BIGSUB   4        0    3.68097E+00 0.155E+02 0.000E+00 0.472E+01 0.395E+01 0.855E+02 0.898E-01 0.120E+01 0.347E-01 0.832E+01 0.627E-01 0.114E+00 0.139E-01 0.283E-03 0.157E-03 0.112E-01 0.709E+01 0.991E-02 0.356E-05 .39855E-04 0.135E+01 0.634E+00 0.000E+00 0.000E+00 0.000E+00
BIGSUB   5        0    3.53384E+00 0.155E+02 0.000E+00 0.471E+01 0.392E+01 0.982E+02 0.467E+00 0.832E+00 0.260E+00 0.819E+01 0.879E-01 0.141E+00 0.172E-01 0.233E-03 0.582E-04 0.138E-01 0.709E+01 0.967E-02 0.984E-04 .77137E-03 0.522E+01 0.608E+00 0.000E+00 0.000E+00 0.000E+00
BIGSUB   6        0    3.23701E-01 0.155E+02 0.000E+00 0.472E+01 0.431E+01 0.702E+02 0.117E+01 0.656E+01 0.639E+00 0.925E+01 0.416E-01 0.712E-01 0.871E-02 0.648E-03 0.110E-02 0.699E-02 0.203E+01 0.329E-02 0.238E-03 .19942E-02 0.943E+01 0.687E+00 0.000E+00 0.000E+00 0.000E+00
BIGSUB   7        0    3.37963E-01 0.155E+02 0.000E+00 0.472E+01 0.425E+01 0.641E+02 0.434E+00 0.414E+01 0.289E+00 0.848E+01 0.149E-01 0.517E-01 0.632E-02 0.111E-03 0.720E-03 0.501E-02 0.403E+01 0.565E-02 0.818E-04 .19990E-04 0.476E+00 0.663E+00 0.000E+00 0.000E+00 0.000E+00
BIGSUB   8        0    3.27046E+00 0.155E+02 0.000E+00 0.472E+01 0.407E+01 0.746E+02 0.334E-01 0.240E+01 0.108E-01 0.851E+01 0.471E-01 0.917E-01 0.112E-01 0.158E-03 0.387E-03 0.900E-02 0.610E+01 0.839E-02 0.100E-05 .23367E-04 0.993E+00 0.658E+00 0.000E+00 0.000E+00 0.000E+00
BIGSUB   9        0    3.11081E-01 0.155E+02 0.000E+00 0.472E+01 0.397E+01 0.670E+02 0.171E+01 0.378E+01 0.912E+00 0.826E+01 0.914E-02 0.368E-01 0.451E-02 0.733E-02 0.756E-03 0.356E-02 0.353E+01 0.103E-01 0.232E-03 .27268E-03 0.309E+00 0.653E+00 0.000E+00 0.000E+00 0.000E+00
BIGSUB   1        0    4.14970E+00 0.640E+01 0.000E+00 0.573E+01 0.487E+01 0.804E+02 0.127E-01 0.691E+00 0.157E+00 0.403E+01 0.468E-09 0.100E-08 0.100E-08 0.239E-04 0.126E-03 0.200E-08 0.318E+01 0.326E-02 0.340E-04 .95555E-06 0.000E+00 0.330E+00 0.000E+00 0.000E+00 0.000E+00
BIGSUB   2        0    4.20992E+00 0.640E+01 0.000E+00 0.577E+01 0.469E+01 0.998E+02 0.703E-01 0.338E+00 0.349E+00 0.436E+01 0.848E-09 0.529E-04 0.675E-05 0.336E-04 0.611E-04 0.549E-05 0.366E+01 0.427E-02 0.839E-04 .12674E-05 0.839E-09 0.353E+00 0.000E+00 0.000E+00 0.000E+00
BIGSUB   3        0    4.15360E+00 0.640E+01 0.000E+00 0.574E+01 0.458E+01 0.878E+02 0.607E-01 0.140E+00 0.159E+00 0.443E+01 0.807E-09 0.140E-08 0.105E-08 0.702E-05 0.257E-04 0.204E-08 0.413E+01 0.453E-02 0.600E-04 .26710E-06 0.000E+00 0.363E+00 0.000E+00 0.000E+00 0.000E+00
BIGSUB   4        0    4.68097E+00 0.640E+01 0.000E+00 0.573E+01 0.458E+01 0.844E+02 0.198E-01 0.137E+00 0.347E-01 0.439E+01 0.222E-09 0.448E-04 0.571E-05 0.635E-04 0.250E-04 0.463E-05 0.421E+01 0.416E-02 0.356E-05 .24806E-05 0.297E-09 0.359E+00 0.000E+00 0.000E+00 0.000E+00
BIGSUB   5        0    4.53384E+00 0.640E+01 0.000E+00 0.574E+01 0.454E+01 0.972E+02 0.758E-01 0.525E-01 0.258E+00 0.457E+01 0.211E-09 0.377E-02 0.461E-03 0.454E-04 0.424E-05 0.371E-03 0.425E+01 0.411E-02 0.967E-04 .55813E-04 0.621E-08 0.374E+00 0.000E+00 0.000E+00 0.000E+00
BIGSUB   6        0    4.23701E-01 0.640E+01 0.000E+00 0.573E+01 0.485E+01 0.692E+02 0.191E+00 0.162E+01 0.635E+00 0.363E+01 0.378E-08 0.965E-02 0.118E-02 0.321E-03 0.279E-03 0.949E-03 0.134E+01 0.190E-02 0.234E-03 .17344E-03 0.799E-07 0.297E+00 0.000E+00 0.000E+00 0.000E+00
BIGSUB   7        0    4.37963E-01 0.640E+01 0.000E+00 0.573E+01 0.502E+01 0.630E+02 0.905E-01 0.931E+00 0.267E+00 0.361E+01 0.262E-08 0.796E-07 0.106E-07 0.280E-04 0.170E-03 0.925E-08 0.240E+01 0.262E-02 0.791E-04 .11166E-05 0.000E+00 0.295E+00 0.000E+00 0.000E+00 0.000E+00
BIGSUB   8        0    4.27046E+00 0.640E+01 0.000E+00 0.573E+01 0.475E+01 0.735E+02 0.901E-02 0.473E+00 0.108E-01 0.409E+01 0.448E-09 0.123E-08 0.103E-08 0.148E-04 0.865E-04 0.202E-08 0.361E+01 0.343E-02 0.988E-06 .58560E-06 0.000E+00 0.335E+00 0.000E+00 0.000E+00 0.000E+00
BIGSUB   9        0    4.11081E-01 0.640E+01 0.000E+00 0.572E+01 0.467E+01 0.661E+02 0.421E+00 0.827E+00 0.909E+00 0.399E+01 0.715E-08 0.308E-05 0.378E-06 0.389E-02 0.160E-03 0.296E-06 0.221E+01 0.652E-02 0.233E-03 .15534E-03 0.000E+00 0.326E+00 0.000E+00 0.000E+00 0.000E+00
BIGSUB   1        0    5.14970E+00 0.257E+02 0.000E+00 0.573E+01 0.489E+01 0.814E+02 0.641E+00 0.755E+01 0.157E+00 0.164E+02 0.429E+00 0.691E+00 0.844E-01 0.244E-03 0.113E-02 0.678E-01 0.870E+01 0.149E-01 0.338E-04 .17887E-02 0.246E+02 0.117E+01 0.000E+00 0.000E+00 0.000E+00
BIGSUB   2        0    5.20992E+00 0.257E+02 0.000E+00 0.577E+01 0.471E+01 0.101E+03 0.135E+01 0.548E+01 0.348E+00 0.158E+02 0.470E+00 0.792E+00 0.969E-01 0.380E-03 0.711E-03 0.776E-01 0.991E+01 0.179E-01 0.838E-04 .25725E-02 0.291E+02 0.105E+01 0.000E+00 0.000E+00 0.000E+00
BIGSUB   3        0    5.15360E+00 0.257E+02 0.000E+00 0.574E+01 0.460E+01 0.891E+02 0.564E+00 0.496E+01 0.159E+00 0.158E+02 0.831E+00 0.116E+01 0.142E+00 0.562E-03 0.567E-03 0.115E+00 0.107E+02 0.186E-01 0.600E-04 .30507E-02 0.454E+02 0.100E+01 0.000E+00 0.000E+00 0.000E+00
BIGSUB   4        0    5.68097E+00 0.257E+02 0.000E+00 0.573E+01 0.460E+01 0.858E+02 0.146E+00 0.498E+01 0.349E-01 0.160E+02 0.757E+00 0.117E+01 0.143E+00 0.514E-03 0.503E-03 0.115E+00 0.110E+02 0.180E-01 0.366E-05 .31185E-02 0.436E+02 0.100E+01 0.000E+00 0.000E+00 0.000E+00
BIGSUB   5        0    5.53384E+00 0.257E+02 0.000E+00 0.574E+01 0.456E+01 0.986E+02 0.901E+00 0.416E+01 0.258E+00 0.154E+02 0.912E+00 0.128E+01 0.157E+00 0.440E-03 0.283E-03 0.126E+00 0.110E+02 0.177E-01 0.964E-04 .56015E-02 0.591E+02 0.935E+00 0.000E+00 0.000E+00 0.000E+00
BIGSUB   6        0    5.23701E-01 0.257E+02 0.000E+00 0.573E+01 0.515E+01 0.699E+02 0.225E+01 0.130E+02 0.634E+00 0.168E+02 0.185E+00 0.317E+00 0.388E-01 0.642E-03 0.213E-02 0.309E-01 0.312E+01 0.571E-02 0.233E-03 .66401E-02 0.329E+02 0.119E+01 0.000E+00 0.000E+00 0.000E+00
BIGSUB   7        0    5.37963E-01 0.257E+02 0.000E+00 0.573E+01 0.503E+01 0.637E+02 0.134E+01 0.980E+01 0.271E+00 0.166E+02 0.172E+00 0.510E+00 0.625E-01 0.207E-03 0.155E-02 0.494E-01 0.647E+01 0.136E-01 0.792E-04 .16227E-02 0.141E+02 0.116E+01 0.000E+00 0.000E+00 0.000E+00
BIGSUB   8        0    5.27046E+00 0.257E+02 0.000E+00 0.573E+01 0.477E+01 0.748E+02 0.610E-01 0.696E+01 0.108E-01 0.164E+02 0.573E+00 0.947E+00 0.116E+00 0.356E-03 0.923E-03 0.930E-01 0.946E+01 0.153E-01 0.995E-06 .24879E-02 0.338E+02 0.109E+01 0.000E+00 0.000E+00 0.000E+00
BIGSUB   9        0    5.11081E-01 0.257E+02 0.000E+00 0.573E+01 0.468E+01 0.667E+02 0.319E+01 0.945E+01 0.910E+00 0.160E+02 0.105E+00 0.365E+00 0.447E-01 0.750E-02 0.190E-02 0.352E-01 0.558E+01 0.182E-01 0.241E-03 .14677E-02 0.916E+01 0.111E+01 0.000E+00 0.000E+00 0.000E+00
BIGSUB   1        0    6.14970E+00 0.130E+01 0.000E+00 0.576E+01 0.416E+01 0.785E+02 0.541E-02 0.176E-03 0.156E+00 0.321E+01 0.468E-09 0.100E-08 0.100E-08 0.944E-08 0.327E-07 0.200E-08 0.304E+01 0.512E-02 0.334E-04 .24747E-10 0.000E+00 0.262E+00 0.000E+00 0.000E+00 0.000E+00
BIGSUB   2        0    6.20992E+00 0.130E+01 0.000E+00 0.581E+01 0.391E+01 0.981E+02 0.234E-02 0.358E-02 0.347E+00 0.385E+01 0.848E-09 0.989E-09 0.989E-09 0.381E-06 0.650E-06 0.198E-08 0.348E+01 0.618E-02 0.833E-04 .13843E-07 0.000E+00 0.311E+00 0.000E+00 0.000E+00 0.000E+00
BIGSUB   3        0    6.15360E+00 0.130E+01 0.000E+00 0.577E+01 0.368E+01 0.867E+02 0.112E-02 0.905E-03 0.159E+00 0.398E+01 0.807E-09 0.197E-08 0.109E-08 0.363E-07 0.236E-06 0.206E-08 0.381E+01 0.653E-02 0.595E-04 .61714E-10 0.000E+00 0.325E+00 0.000E+00 0.000E+00 0.000E+00
BIGSUB   4        0    6.68097E+00 0.130E+01 0.000E+00 0.577E+01 0.366E+01 0.833E+02 0.104E-02 0.406E-02 0.350E-01 0.392E+01 0.222E-09 0.109E-06 0.137E-07 0.572E-06 0.787E-06 0.154E-07 0.388E+01 0.633E-02 0.372E-05 .17743E-07 0.000E+00 0.321E+00 0.000E+00 0.000E+00 0.000E+00
BIGSUB   5        0    6.53384E+00 0.130E+01 0.000E+00 0.577E+01 0.360E+01 0.961E+02 0.588E-04 0.476E-03 0.257E+00 0.426E+01 0.211E-09 0.869E-05 0.106E-05 0.423E-07 0.101E-06 0.820E-06 0.398E+01 0.632E-02 0.957E-04 .13861E-06 0.000E+00 0.348E+00 0.000E+00 0.000E+00 0.000E+00
BIGSUB   6        0    6.23701E-01 0.130E+01 0.000E+00 0.576E+01 0.424E+01 0.669E+02 0.668E-02 0.740E-02 0.633E+00 0.208E+01 0.378E-08 0.240E-06 0.306E-07 0.127E-05 0.136E-05 0.250E-07 0.141E+01 0.257E-02 0.231E-03 .46340E-07 0.000E+00 0.170E+00 0.000E+00 0.000E+00 0.000E+00
BIGSUB   7        0    6.37963E-01 0.130E+01 0.000E+00 0.576E+01 0.436E+01 0.606E+02 0.978E-02 0.320E-01 0.274E+00 0.266E+01 0.262E-08 0.568E-04 0.696E-05 0.361E-06 0.611E-05 0.527E-05 0.234E+01 0.480E-02 0.787E-04 .13289E-07 0.000E+00 0.217E+00 0.000E+00 0.000E+00 0.000E+00
BIGSUB   8        0    6.27046E+00 0.130E+01 0.000E+00 0.576E+01 0.394E+01 0.721E+02 0.477E-02 0.335E-01 0.109E-01 0.337E+01 0.448E-09 0.108E-08 0.101E-08 0.248E-06 0.617E-05 0.200E-08 0.332E+01 0.529E-02 0.995E-06 .89763E-08 0.000E+00 0.275E+00 0.000E+00 0.000E+00 0.000E+00
BIGSUB   9        0    6.11081E-01 0.130E+01 0.000E+00 0.576E+01 0.406E+01 0.638E+02 0.967E-02 0.489E-01 0.861E+00 0.315E+01 0.715E-08 0.310E-04 0.379E-05 0.609E-04 0.941E-05 0.295E-05 0.220E+01 0.837E-02 0.243E-03 .23545E-05 0.000E+00 0.257E+00 0.000E+00 0.000E+00 0.000E+00
BIGSUB   1        0    7.14970E+00 0.000E+00 0.000E+00 0.575E+01 0.261E+01 0.759E+02 0.265E-02 0.100E-05 0.155E+00 0.121E+01 0.468E-09 0.100E-08 0.100E-08 0.100E-08 0.100E-08 0.200E-08 0.105E+01 0.176E-02 0.329E-04 .69949E-17 0.000E+00 0.100E+00 0.000E+00 0.000E+00 0.000E+00
BIGSUB   2        0    7.20992E+00 0.000E+00 0.000E+00 0.579E+01 0.248E+01 0.957E+02 0.113E-02 0.246E-03 0.345E+00 0.156E+01 0.848E-09 0.989E-09 0.989E-09 0.281E-08 0.453E-07 0.198E-08 0.120E+01 0.214E-02 0.823E-04 .70591E-10 0.000E+00 0.128E+00 0.000E+00 0.000E+00 0.000E+00
BIGSUB   3        0    7.15360E+00 0.000E+00 0.000E+00 0.576E+01 0.231E+01 0.843E+02 0.535E-03 0.527E-03 0.158E+00 0.151E+01 0.807E-09 0.109E-08 0.101E-08 0.209E-07 0.139E-06 0.201E-08 0.134E+01 0.230E-02 0.589E-04 .14782E-10 0.000E+00 0.125E+00 0.000E+00 0.000E+00 0.000E+00
BIGSUB   4        0    7.68097E+00 0.000E+00 0.000E+00 0.575E+01 0.229E+01 0.810E+02 0.492E-03 0.798E-03 0.350E-01 0.139E+01 0.222E-09 0.100E-08 0.100E-08 0.123E-07 0.161E-06 0.200E-08 0.135E+01 0.224E-02 0.375E-05 .20069E-09 0.000E+00 0.115E+00 0.000E+00 0.000E+00 0.000E+00
BIGSUB   5        0    7.53384E+00 0.000E+00 0.000E+00 0.575E+01 0.227E+01 0.939E+02 0.256E-04 0.167E-03 0.256E+00 0.171E+01 0.211E-09 0.580E-06 0.718E-07 0.872E-08 0.429E-07 0.568E-07 0.144E+01 0.229E-02 0.945E-04 .26348E-09 0.000E+00 0.141E+00 0.000E+00 0.000E+00 0.000E+00
BIGSUB   6        0    7.23701E-01 0.000E+00 0.000E+00 0.575E+01 0.236E+01 0.645E+02 0.345E-02 0.185E-03 0.630E+00 0.132E+01 0.378E-08 0.100E-08 0.100E-08 0.234E-08 0.346E-07 0.200E-08 0.660E+00 0.120E-02 0.229E-03 .49508E-10 0.000E+00 0.109E+00 0.000E+00 0.000E+00 0.000E+00
BIGSUB   7        0    7.37963E-01 0.000E+00 0.000E+00 0.574E+01 0.271E+01 0.579E+02 0.580E-02 0.115E-01 0.276E+00 0.115E+01 0.262E-08 0.299E-05 0.366E-06 0.123E-06 0.215E-05 0.278E-06 0.844E+00 0.172E-02 0.780E-04 .41711E-08 0.000E+00 0.950E-01 0.000E+00 0.000E+00 0.000E+00
BIGSUB   8        0    7.27046E+00 0.000E+00 0.000E+00 0.575E+01 0.245E+01 0.696E+02 0.284E-02 0.164E-02 0.109E-01 0.116E+01 0.448E-09 0.105E-08 0.100E-08 0.206E-07 0.326E-06 0.200E-08 0.114E+01 0.182E-02 0.989E-06 .31681E-09 0.000E+00 0.956E-01 0.000E+00 0.000E+00 0.000E+00
BIGSUB   9        0    7.11081E-01 0.000E+00 0.000E+00 0.574E+01 0.261E+01 0.612E+02 0.675E-02 0.636E-03 0.849E+00 0.182E+01 0.715E-08 0.757E-07 0.101E-07 0.785E-06 0.124E-06 0.907E-08 0.929E+00 0.429E-02 0.245E-03 .18208E-07 0.000E+00 0.150E+00 0.000E+00 0.000E+00 0.000E+00
BIGSUB   1        0    8.14970E+00 0.000E+00 0.000E+00 0.597E+01 0.170E+01 0.742E+02 0.000E+00 0.100E-05 0.154E+00 0.522E+00 0.468E-09 0.100E-08 0.100E-08 0.100E-08 0.100E-08 0.200E-08 0.359E+00 0.604E-03 0.323E-04 .70264E-17 0.000E+00 0.431E-01 0.000E+00 0.000E+00 0.000E+00
BIGSUB   2        0    8.20992E+00 0.000E+00 0.000E+00 0.599E+01 0.187E+01 0.939E+02 0.207E-05 0.283E-04 0.343E+00 0.777E+00 0.848E-09 0.989E-09 0.989E-09 0.119E-08 0.593E-08 0.198E-08 0.417E+00 0.744E-03 0.810E-04 .69860E-11 0.000E+00 0.635E-01 0.000E+00 0.000E+00 0.000E+00
BIGSUB   3        0    8.15360E+00 0.000E+00 0.000E+00 0.597E+01 0.181E+01 0.825E+02 0.000E+00 0.318E-03 0.158E+00 0.646E+00 0.807E-09 0.105E-08 0.101E-08 0.130E-07 0.843E-07 0.200E-08 0.480E+00 0.824E-03 0.579E-04 .36423E-11 0.000E+00 0.534E-01 0.000E+00 0.000E+00 0.000E+00
BIGSUB   4        0    8.68097E+00 0.000E+00 0.000E+00 0.597E+01 0.181E+01 0.792E+02 0.818E-05 0.229E-03 0.349E-01 0.510E+00 0.222E-09 0.100E-08 0.100E-08 0.455E-08 0.477E-07 0.200E-08 0.471E+00 0.800E-03 0.376E-05 .52656E-10 0.000E+00 0.421E-01 0.000E+00 0.000E+00 0.000E+00
BIGSUB   5        0    8.53384E+00 0.000E+00 0.000E+00 0.597E+01 0.188E+01 0.920E+02 0.000E+00 0.932E-04 0.255E+00 0.798E+00 0.211E-09 0.402E-07 0.580E-08 0.458E-08 0.251E-07 0.571E-08 0.531E+00 0.852E-03 0.929E-04 .11475E-11 0.000E+00 0.660E-01 0.000E+00 0.000E+00 0.000E+00
BIGSUB   6        0    8.23701E-01 0.000E+00 0.000E+00 0.597E+01 0.138E+01 0.632E+02 0.336E-03 0.985E-05 0.627E+00 0.974E+00 0.378E-08 0.100E-08 0.100E-08 0.106E-08 0.262E-08 0.200E-08 0.318E+00 0.581E-03 0.225E-03 .78939E-12 0.000E+00 0.805E-01 0.000E+00 0.000E+00 0.000E+00
BIGSUB   7        0    8.37963E-01 0.000E+00 0.000E+00 0.597E+01 0.191E+01 0.560E+02 0.203E-02 0.645E-02 0.273E+00 0.608E+00 0.262E-08 0.158E-06 0.202E-07 0.652E-07 0.119E-05 0.165E-07 0.312E+00 0.629E-03 0.766E-04 .24308E-08 0.000E+00 0.502E-01 0.000E+00 0.000E+00 0.000E+00
BIGSUB   8        0    8.27046E+00 0.000E+00 0.000E+00 0.597E+01 0.185E+01 0.678E+02 0.971E-03 0.256E-03 0.109E-01 0.405E+00 0.448E-09 0.103E-08 0.100E-08 0.826E-08 0.619E-07 0.200E-08 0.392E+00 0.626E-03 0.979E-06 .10809E-10 0.000E+00 0.335E-01 0.000E+00 0.000E+00 0.000E+00
BIGSUB   9        0    8.11081E-01 0.000E+00 0.000E+00 0.597E+01 0.194E+01 0.593E+02 0.384E-02 0.163E-04 0.841E+00 0.131E+01 0.715E-08 0.116E-08 0.100E-08 0.228E-07 0.380E-08 0.199E-08 0.436E+00 0.242E-02 0.246E-03 .92113E-10 0.000E+00 0.109E+00 0.000E+00 0.000E+00 0.000E+00
BIGSUB   1        0    9.14970E+00 0.709E+02 0.000E+00 0.427E+01 0.384E+01 0.931E+02 0.118E+01 0.264E+02 0.155E+00 0.402E+02 0.270E+01 0.492E+01 0.601E+00 0.127E-02 0.262E-02 0.481E+00 0.136E+02 0.203E-01 0.329E-04 .77957E-01 0.423E+03 0.163E+01 0.000E+00 0.000E+00 0.000E+00
BIGSUB   2        0    9.20992E+00 0.709E+02 0.000E+00 0.430E+01 0.375E+01 0.107E+03 0.234E+01 0.286E+02 0.344E+00 0.443E+02 0.288E+01 0.542E+01 0.662E+00 0.194E-02 0.286E-02 0.529E+00 0.153E+02 0.234E-01 0.827E-04 .89634E-01 0.462E+03 0.156E+01 0.000E+00 0.000E+00 0.000E+00
BIGSUB   3        0    9.15360E+00 0.709E+02 0.000E+00 0.427E+01 0.368E+01 0.929E+02 0.102E+01 0.320E+02 0.158E+00 0.478E+02 0.504E+01 0.751E+01 0.917E+00 0.283E-02 0.296E-02 0.738E+00 0.156E+02 0.222E-01 0.588E-04 .12838E+00 0.757E+03 0.151E+01 0.000E+00 0.000E+00 0.000E+00
BIGSUB   4        0    9.68097E+00 0.709E+02 0.000E+00 0.427E+01 0.369E+01 0.895E+02 0.179E+00 0.324E+02 0.351E-01 0.485E+02 0.458E+01 0.747E+01 0.912E+00 0.233E-02 0.255E-02 0.734E+00 0.160E+02 0.216E-01 0.390E-05 .12809E+00 0.720E+03 0.150E+01 0.000E+00 0.000E+00 0.000E+00
BIGSUB   5        0    9.53384E+00 0.709E+02 0.000E+00 0.427E+01 0.367E+01 0.100E+03 0.174E+01 0.322E+02 0.256E+00 0.486E+02 0.533E+01 0.812E+01 0.992E+00 0.201E-02 0.222E-02 0.798E+00 0.162E+02 0.217E-01 0.944E-04 .14171E+00 0.817E+03 0.139E+01 0.000E+00 0.000E+00 0.000E+00
BIGSUB   6        0    9.23701E-01 0.709E+02 0.000E+00 0.427E+01 0.399E+01 0.891E+02 0.433E+01 0.282E+02 0.629E+00 0.335E+02 0.707E+00 0.179E+01 0.219E+00 0.145E-02 0.400E-02 0.172E+00 0.469E+01 0.723E-02 0.228E-03 .38082E-01 0.153E+03 0.164E+01 0.000E+00 0.000E+00 0.000E+00
BIGSUB   7        0    9.37963E-01 0.709E+02 0.000E+00 0.427E+01 0.391E+01 0.748E+02 0.219E+01 0.313E+02 0.277E+00 0.410E+02 0.981E+00 0.314E+01 0.385E+00 0.963E-03 0.387E-02 0.304E+00 0.941E+01 0.180E-01 0.779E-04 .56980E-01 0.207E+03 0.177E+01 0.000E+00 0.000E+00 0.000E+00
BIGSUB   8        0    9.27046E+00 0.709E+02 0.000E+00 0.427E+01 0.378E+01 0.816E+02 0.804E-01 0.322E+02 0.109E-01 0.461E+02 0.347E+01 0.607E+01 0.741E+00 0.173E-02 0.300E-02 0.596E+00 0.138E+02 0.185E-01 0.999E-06 .10396E+00 0.562E+03 0.167E+01 0.000E+00 0.000E+00 0.000E+00
BIGSUB   9        0    9.11081E-01 0.709E+02 0.000E+00 0.427E+01 0.368E+01 0.723E+02 0.459E+01 0.368E+02 0.846E+00 0.455E+02 0.592E+00 0.219E+01 0.268E+00 0.212E-01 0.756E-02 0.211E+00 0.780E+01 0.211E-01 0.259E-03 .41238E-01 0.133E+03 0.220E+01 0.000E+00 0.000E+00 0.000E+00
BIGSUB   1        0   10.14970E+00 0.498E+02 0.000E+00 0.412E+01 0.374E+01 0.937E+02 0.152E+01 0.246E+02 0.157E+00 0.421E+02 0.468E-09 0.354E+01 0.433E+00 0.751E-03 0.314E-02 0.347E+00 0.173E+02 0.350E-01 0.348E-04 .27572E-01 0.366E-07 0.356E+01 0.000E+00 0.000E+00 0.000E+00
BIGSUB   2        0   10.20992E+00 0.498E+02 0.000E+00 0.416E+01 0.367E+01 0.108E+03 0.284E+01 0.206E+02 0.349E+00 0.406E+02 0.848E-09 0.393E+01 0.481E+00 0.117E-02 0.231E-02 0.384E+00 0.196E+02 0.402E-01 0.871E-04 .33069E-01 0.742E-07 0.339E+01 0.000E+00 0.000E+00 0.000E+00
BIGSUB   3        0   10.15360E+00 0.498E+02 0.000E+00 0.414E+01 0.361E+01 0.944E+02 0.136E+01 0.206E+02 0.160E+00 0.410E+02 0.262E-05 0.540E+01 0.660E+00 0.181E-02 0.201E-02 0.531E+00 0.202E+02 0.433E-01 0.612E-04 .45733E-01 0.765E-03 0.347E+01 0.000E+00 0.000E+00 0.000E+00
BIGSUB   4        0   10.68097E+00 0.498E+02 0.000E+00 0.413E+01 0.361E+01 0.910E+02 0.611E+00 0.208E+02 0.355E-01 0.416E+02 0.482E-05 0.547E+01 0.668E+00 0.149E-02 0.177E-02 0.537E+00 0.207E+02 0.428E-01 0.421E-05 .46731E-01 0.148E-02 0.352E+01 0.000E+00 0.000E+00 0.000E+00
BIGSUB   5        0   10.53384E+00 0.498E+02 0.000E+00 0.413E+01 0.360E+01 0.102E+03 0.204E+01 0.188E+02 0.258E+00 0.401E+02 0.626E-02 0.584E+01 0.714E+00 0.127E-02 0.124E-02 0.574E+00 0.210E+02 0.426E-01 0.984E-04 .52976E-01 0.128E+01 0.329E+01 0.000E+00 0.000E+00 0.000E+00
BIGSUB   6        0   10.23701E-01 0.498E+02 0.000E+00 0.412E+01 0.388E+01 0.892E+02 0.434E+01 0.337E+02 0.636E+00 0.407E+02 0.128E-01 0.131E+01 0.161E+00 0.106E-02 0.528E-02 0.126E+00 0.632E+01 0.115E-01 0.238E-03 .20537E-01 0.301E+01 0.310E+01 0.000E+00 0.000E+00 0.000E+00
BIGSUB   7        0   10.37963E-01 0.498E+02 0.000E+00 0.412E+01 0.379E+01 0.748E+02 0.274E+01 0.292E+02 0.285E+00 0.419E+02 0.298E-04 0.244E+01 0.298E+00 0.575E-03 0.413E-02 0.236E+00 0.124E+02 0.280E-01 0.813E-04 .22225E-01 0.918E-02 0.354E+01 0.000E+00 0.000E+00 0.000E+00
BIGSUB   8        0   10.27046E+00 0.498E+02 0.000E+00 0.413E+01 0.369E+01 0.829E+02 0.437E+00 0.244E+02 0.111E-01 0.423E+02 0.149E-05 0.449E+01 0.549E+00 0.109E-02 0.269E-02 0.441E+00 0.179E+02 0.367E-01 0.105E-05 .38288E-01 0.434E-03 0.358E+01 0.000E+00 0.000E+00 0.000E+00
BIGSUB   9        0   10.11081E-01 0.498E+02 0.000E+00 0.412E+01 0.357E+01 0.727E+02 0.530E+01 0.282E+02 0.856E+00 0.395E+02 0.715E-08 0.172E+01 0.210E+00 0.158E-01 0.551E-02 0.166E+00 0.104E+02 0.311E-01 0.283E-03 .17146E-01 0.802E-06 0.334E+01 0.000E+00 0.000E+00 0.000E+00
BIGSUB   1        0   11.14970E+00 0.531E+02 0.000E+00 0.218E+01 0.217E+01 0.951E+02 0.188E+01 0.273E+02 0.160E+00 0.468E+02 0.238E+01 0.333E+01 0.407E+00 0.530E-03 0.338E-02 0.326E+00 0.193E+02 0.478E-01 0.378E-04 .26327E-01 0.246E+03 0.278E+01 0.000E+00 0.000E+00 0.000E+00
BIGSUB   2        0   11.20992E+00 0.531E+02 0.000E+00 0.218E+01 0.215E+01 0.109E+03 0.328E+01 0.232E+02 0.356E+00 0.454E+02 0.254E+01 0.370E+01 0.452E+00 0.847E-03 0.252E-02 0.361E+00 0.218E+02 0.536E-01 0.941E-04 .31433E-01 0.271E+03 0.239E+01 0.000E+00 0.000E+00 0.000E+00
BIGSUB   3        0   11.15360E+00 0.531E+02 0.000E+00 0.217E+01 0.214E+01 0.958E+02 0.186E+01 0.234E+02 0.163E+00 0.464E+02 0.449E+01 0.494E+01 0.604E+00 0.137E-02 0.221E-02 0.486E+00 0.228E+02 0.635E-01 0.649E-04 .42748E-01 0.447E+03 0.221E+01 0.000E+00 0.000E+00 0.000E+00
BIGSUB   4        0   11.68097E+00 0.531E+02 0.000E+00 0.218E+01 0.215E+01 0.925E+02 0.117E+01 0.237E+02 0.362E-01 0.470E+02 0.408E+01 0.507E+01 0.620E+00 0.110E-02 0.194E-02 0.498E+00 0.233E+02 0.634E-01 0.468E-05 .44336E-01 0.426E+03 0.221E+01 0.000E+00 0.000E+00 0.000E+00
BIGSUB   5        0   11.53384E+00 0.531E+02 0.000E+00 0.217E+01 0.216E+01 0.103E+03 0.262E+01 0.215E+02 0.263E+00 0.455E+02 0.473E+01 0.536E+01 0.655E+00 0.917E-03 0.137E-02 0.527E+00 0.237E+02 0.634E-01 0.105E-03 .49034E-01 0.489E+03 0.202E+01 0.000E+00 0.000E+00 0.000E+00
BIGSUB   6        0   11.23701E-01 0.531E+02 0.000E+00 0.218E+01 0.217E+01 0.906E+02 0.473E+01 0.365E+02 0.647E+00 0.445E+02 0.615E+00 0.125E+01 0.153E+00 0.804E-03 0.564E-02 0.120E+00 0.732E+01 0.153E-01 0.253E-03 .18341E-01 0.105E+03 0.296E+01 0.000E+00 0.000E+00 0.000E+00
BIGSUB   7        0   11.37963E-01 0.531E+02 0.000E+00 0.218E+01 0.217E+01 0.762E+02 0.286E+01 0.320E+02 0.295E+00 0.460E+02 0.848E+00 0.233E+01 0.285E+00 0.392E-03 0.443E-02 0.225E+00 0.138E+02 0.301E-01 0.866E-04 .21559E-01 0.119E+03 0.277E+01 0.000E+00 0.000E+00 0.000E+00
BIGSUB   8        0   11.27046E+00 0.531E+02 0.000E+00 0.218E+01 0.216E+01 0.843E+02 0.909E+00 0.273E+02 0.114E-01 0.474E+02 0.309E+01 0.420E+01 0.513E+00 0.785E-03 0.291E-02 0.413E+00 0.201E+02 0.543E-01 0.114E-05 .36628E-01 0.332E+03 0.250E+01 0.000E+00 0.000E+00 0.000E+00
BIGSUB   9        0   11.11081E-01 0.531E+02 0.000E+00 0.218E+01 0.205E+01 0.745E+02 0.550E+01 0.311E+02 0.873E+00 0.436E+02 0.513E+00 0.165E+01 0.202E+00 0.133E-01 0.595E-02 0.159E+00 0.116E+02 0.332E-01 0.317E-03 .16705E-01 0.774E+02 0.257E+01 0.000E+00 0.000E+00 0.000E+00
BIGSUB   1        0   12.14970E+00 0.389E+02 0.000E+00 0.188E+01 0.187E+01 0.957E+02 0.169E+01 0.172E+02 0.165E+00 0.355E+02 0.468E-09 0.136E+01 0.167E+00 0.286E-03 0.221E-02 0.134E+00 0.182E+02 0.480E-01 0.417E-04 .57356E-02 0.311E-07 0.296E+01 0.000E+00 0.000E+00 0.000E+00
BIGSUB   2        0   12.20992E+00 0.389E+02 0.000E+00 0.188E+01 0.186E+01 0.110E+03 0.290E+01 0.138E+02 0.365E+00 0.347E+02 0.848E-09 0.153E+01 0.187E+00 0.488E-03 0.152E-02 0.150E+00 0.206E+02 0.536E-01 0.103E-03 .72730E-02 0.586E-07 0.287E+01 0.000E+00 0.000E+00 0.000E+00
BIGSUB   3        0   12.15360E+00 0.389E+02 0.000E+00 0.187E+01 0.185E+01 0.962E+02 0.172E+01 0.136E+02 0.166E+00 0.356E+02 0.689E-06 0.204E+01 0.250E+00 0.826E-03 0.129E-02 0.201E+00 0.219E+02 0.661E-01 0.695E-04 .92765E-02 0.566E-07 0.297E+01 0.000E+00 0.000E+00 0.000E+00
BIGSUB   4        0   12.68097E+00 0.389E+02 0.000E+00 0.188E+01 0.186E+01 0.928E+02 0.116E+01 0.137E+02 0.371E-01 0.361E+02 0.149E-05 0.213E+01 0.261E+00 0.654E-03 0.114E-02 0.210E+00 0.223E+02 0.660E-01 0.527E-05 .98630E-02 0.429E-03 0.301E+01 0.000E+00 0.000E+00 0.000E+00
BIGSUB   5        0   12.53384E+00 0.389E+02 0.000E+00 0.187E+01 0.186E+01 0.104E+03 0.240E+01 0.121E+02 0.269E+00 0.351E+02 0.198E-06 0.222E+01 0.272E+00 0.520E-03 0.738E-03 0.219E+00 0.228E+02 0.667E-01 0.112E-03 .11674E-01 0.218E-07 0.293E+01 0.000E+00 0.000E+00 0.000E+00
BIGSUB   6        0   12.23701E-01 0.389E+02 0.000E+00 0.188E+01 0.187E+01 0.915E+02 0.422E+01 0.249E+02 0.662E+00 0.327E+02 0.378E-08 0.529E+00 0.647E-01 0.566E-03 0.385E-02 0.511E-01 0.714E+01 0.167E-01 0.272E-03 .71068E-02 0.218E-06 0.273E+01 0.000E+00 0.000E+00 0.000E+00
BIGSUB   7        0   12.37963E-01 0.389E+02 0.000E+00 0.188E+01 0.187E+01 0.771E+02 0.259E+01 0.208E+02 0.307E+00 0.343E+02 0.294E-05 0.102E+01 0.125E+00 0.221E-03 0.296E-02 0.990E-01 0.131E+02 0.279E-01 0.932E-04 .51165E-02 0.826E-03 0.286E+01 0.000E+00 0.000E+00 0.000E+00
BIGSUB   8        0   12.27046E+00 0.389E+02 0.000E+00 0.188E+01 0.186E+01 0.849E+02 0.912E+00 0.168E+02 0.117E-01 0.361E+02 0.392E-06 0.178E+01 0.218E+00 0.439E-03 0.187E-02 0.175E+00 0.192E+02 0.565E-01 0.125E-05 .81852E-02 0.151E-07 0.301E+01 0.000E+00 0.000E+00 0.000E+00
BIGSUB   9        0   12.11081E-01 0.389E+02 0.000E+00 0.188E+01 0.177E+01 0.754E+02 0.503E+01 0.200E+02 0.893E+00 0.321E+02 0.715E-08 0.732E+00 0.897E-01 0.109E-01 0.374E-02 0.707E-01 0.112E+02 0.309E-01 0.359E-03 .43660E-02 0.661E-06 0.268E+01 0.000E+00 0.000E+00 0.000E+00
BIGSUB   1        0   13.14970E+00 0.150E+02 0.000E+00 0.190E+01 0.189E+01 0.959E+02 0.742E+00 0.373E+01 0.169E+00 0.156E+02 0.218E-01 0.340E-01 0.415E-02 0.545E-04 0.602E-03 0.334E-02 0.117E+02 0.309E-01 0.455E-04 .44888E-05 0.325E+00 0.127E+01 0.000E+00 0.000E+00 0.000E+00
BIGSUB   2        0   13.20992E+00 0.150E+02 0.000E+00 0.191E+01 0.189E+01 0.110E+03 0.127E+01 0.216E+01 0.374E+00 0.159E+02 0.247E-01 0.412E-01 0.505E-02 0.104E-03 0.314E-03 0.405E-02 0.134E+02 0.347E-01 0.112E-03 .12731E-04 0.473E+00 0.126E+01 0.000E+00 0.000E+00 0.000E+00
BIGSUB   3        0   13.15360E+00 0.150E+02 0.000E+00 0.190E+01 0.188E+01 0.962E+02 0.796E+00 0.147E+01 0.170E+00 0.164E+02 0.427E-01 0.555E-01 0.678E-02 0.155E-03 0.192E-03 0.546E-02 0.147E+02 0.437E-01 0.738E-04 .55809E-05 0.592E+00 0.131E+01 0.000E+00 0.000E+00 0.000E+00
BIGSUB   4        0   13.68097E+00 0.150E+02 0.000E+00 0.190E+01 0.188E+01 0.928E+02 0.589E+00 0.144E+01 0.380E-01 0.164E+02 0.391E-01 0.592E-01 0.723E-02 0.173E-03 0.171E-03 0.582E-02 0.150E+02 0.437E-01 0.588E-05 .10520E-04 0.595E+00 0.131E+01 0.000E+00 0.000E+00 0.000E+00
BIGSUB   5        0   13.53384E+00 0.150E+02 0.000E+00 0.190E+01 0.189E+01 0.104E+03 0.106E+01 0.963E+00 0.275E+00 0.165E+02 0.516E-01 0.652E-01 0.797E-02 0.117E-03 0.577E-04 0.642E-02 0.153E+02 0.446E-01 0.120E-03 .16494E-03 0.230E+01 0.130E+01 0.000E+00 0.000E+00 0.000E+00
BIGSUB   6        0   13.23701E-01 0.150E+02 0.000E+00 0.190E+01 0.190E+01 0.921E+02 0.188E+01 0.743E+01 0.677E+00 0.132E+02 0.189E-01 0.276E-01 0.338E-02 0.292E-03 0.120E-02 0.271E-02 0.504E+01 0.126E-01 0.290E-03 .50340E-03 0.409E+01 0.102E+01 0.000E+00 0.000E+00 0.000E+00
BIGSUB   7        0   13.37963E-01 0.150E+02 0.000E+00 0.190E+01 0.189E+01 0.776E+02 0.125E+01 0.504E+01 0.320E+00 0.142E+02 0.798E-02 0.268E-01 0.328E-02 0.551E-04 0.837E-03 0.260E-02 0.882E+01 0.179E-01 0.996E-04 .47767E-05 0.151E+00 0.115E+01 0.000E+00 0.000E+00 0.000E+00
BIGSUB   8        0   13.27046E+00 0.150E+02 0.000E+00 0.190E+01 0.189E+01 0.851E+02 0.466E+00 0.297E+01 0.121E-01 0.158E+02 0.294E-01 0.493E-01 0.602E-02 0.766E-04 0.451E-03 0.484E-02 0.128E+02 0.372E-01 0.137E-05 .52411E-05 0.442E+00 0.126E+01 0.000E+00 0.000E+00 0.000E+00
BIGSUB   9        0   13.11081E-01 0.150E+02 0.000E+00 0.190E+01 0.179E+01 0.759E+02 0.262E+01 0.440E+01 0.915E+00 0.132E+02 0.486E-02 0.184E-01 0.225E-02 0.714E-02 0.815E-03 0.177E-02 0.784E+01 0.214E-01 0.399E-03 .26983E-03 0.946E-01 0.107E+01 0.000E+00 0.000E+00 0.000E+00
BIGSUB   1        0   14.14970E+00 0.234E+02 0.000E+00 0.210E+01 0.209E+01 0.961E+02 0.115E+01 0.762E+01 0.175E+00 0.200E+02 0.148E+00 0.238E+00 0.291E-01 0.769E-04 0.110E-02 0.234E-01 0.122E+02 0.317E-01 0.496E-04 .31101E-03 0.736E+01 0.150E+01 0.000E+00 0.000E+00 0.000E+00
BIGSUB   2        0   14.20992E+00 0.234E+02 0.000E+00 0.211E+01 0.209E+01 0.110E+03 0.197E+01 0.526E+01 0.385E+00 0.195E+02 0.161E+00 0.273E+00 0.334E-01 0.148E-03 0.645E-03 0.268E-01 0.139E+02 0.356E-01 0.121E-03 .46852E-03 0.856E+01 0.140E+01 0.000E+00 0.000E+00 0.000E+00
BIGSUB   3        0   14.15360E+00 0.234E+02 0.000E+00 0.210E+01 0.208E+01 0.961E+02 0.120E+01 0.466E+01 0.174E+00 0.201E+02 0.289E+00 0.381E+00 0.465E-01 0.259E-03 0.488E-03 0.375E-01 0.153E+02 0.450E-01 0.783E-04 .49532E-03 0.136E+02 0.142E+01 0.000E+00 0.000E+00 0.000E+00
BIGSUB   4        0   14.68097E+00 0.234E+02 0.000E+00 0.210E+01 0.208E+01 0.927E+02 0.855E+00 0.467E+01 0.390E-01 0.203E+02 0.264E+00 0.403E+00 0.493E-01 0.225E-03 0.432E-03 0.397E-01 0.156E+02 0.450E-01 0.656E-05 .54410E-03 0.131E+02 0.141E+01 0.000E+00 0.000E+00 0.000E+00
BIGSUB   5        0   14.53384E+00 0.234E+02 0.000E+00 0.210E+01 0.209E+01 0.104E+03 0.164E+01 0.377E+01 0.282E+00 0.199E+02 0.310E+00 0.417E+00 0.509E-01 0.146E-03 0.217E-03 0.410E-01 0.158E+02 0.460E-01 0.127E-03 .10510E-02 0.174E+02 0.135E+01 0.000E+00 0.000E+00 0.000E+00
BIGSUB   6        0   14.23701E-01 0.234E+02 0.000E+00 0.210E+01 0.210E+01 0.926E+02 0.287E+01 0.131E+02 0.694E+00 0.188E+02 0.490E-01 0.104E+00 0.127E-01 0.243E-03 0.207E-02 0.102E-01 0.497E+01 0.129E-01 0.309E-03 .17184E-02 0.888E+01 0.140E+01 0.000E+00 0.000E+00 0.000E+00
BIGSUB   7        0   14.37963E-01 0.234E+02 0.000E+00 0.210E+01 0.210E+01 0.779E+02 0.185E+01 0.984E+01 0.334E+00 0.193E+02 0.542E-01 0.194E+00 0.237E-01 0.700E-04 0.152E-02 0.188E-01 0.913E+01 0.180E-01 0.106E-03 .28171E-03 0.367E+01 0.144E+01 0.000E+00 0.000E+00 0.000E+00
BIGSUB   8        0   14.27046E+00 0.234E+02 0.000E+00 0.210E+01 0.209E+01 0.852E+02 0.674E+00 0.688E+01 0.125E-01 0.203E+02 0.199E+00 0.338E+00 0.413E-01 0.120E-03 0.876E-03 0.332E-01 0.134E+02 0.384E-01 0.149E-05 .44346E-03 0.102E+02 0.145E+01 0.000E+00 0.000E+00 0.000E+00
BIGSUB   9        0   14.11081E-01 0.234E+02 0.000E+00 0.210E+01 0.198E+01 0.763E+02 0.373E+01 0.907E+01 0.938E+00 0.181E+02 0.330E-01 0.141E+00 0.172E-01 0.713E-02 0.168E-02 0.136E-01 0.810E+01 0.208E-01 0.442E-03 .47623E-03 0.240E+01 0.137E+01 0.000E+00 0.000E+00 0.000E+00
BIGSUB   1        0   15.14970E+00 0.175E+02 0.000E+00 0.244E+01 0.243E+01 0.960E+02 0.855E+00 0.476E+01 0.180E+00 0.154E+02 0.171E-03 0.151E+00 0.184E-01 0.428E-04 0.743E-03 0.148E-01 0.104E+02 0.264E-01 0.537E-04 .54193E-04 0.123E-01 0.128E+01 0.000E+00 0.000E+00 0.000E+00
BIGSUB   2        0   15.20992E+00 0.175E+02 0.000E+00 0.246E+01 0.242E+01 0.109E+03 0.147E+01 0.293E+01 0.395E+00 0.153E+02 0.266E-02 0.181E+00 0.221E-01 0.866E-04 0.399E-03 0.177E-01 0.119E+02 0.297E-01 0.131E-03 .11830E-03 0.203E+00 0.124E+01 0.000E+00 0.000E+00 0.000E+00
BIGSUB   3        0   15.15360E+00 0.175E+02 0.000E+00 0.244E+01 0.241E+01 0.958E+02 0.909E+00 0.224E+01 0.178E+00 0.157E+02 0.135E-04 0.246E+00 0.300E-01 0.143E-03 0.264E-03 0.242E-01 0.133E+02 0.378E-01 0.826E-04 .81894E-04 0.108E-02 0.131E+01 0.000E+00 0.000E+00 0.000E+00
BIGSUB   4        0   15.68097E+00 0.175E+02 0.000E+00 0.244E+01 0.242E+01 0.924E+02 0.662E+00 0.221E+01 0.401E-01 0.158E+02 0.461E-03 0.261E+00 0.319E-01 0.148E-03 0.235E-03 0.257E-01 0.136E+02 0.378E-01 0.726E-05 .97392E-04 0.468E-01 0.132E+01 0.000E+00 0.000E+00 0.000E+00
BIGSUB   5        0   15.53384E+00 0.175E+02 0.000E+00 0.244E+01 0.243E+01 0.103E+03 0.122E+01 0.162E+01 0.288E+00 0.157E+02 0.160E-01 0.276E+00 0.338E-01 0.822E-04 0.918E-04 0.272E-01 0.138E+02 0.388E-01 0.135E-03 .58674E-03 0.270E+01 0.128E+01 0.000E+00 0.000E+00 0.000E+00
BIGSUB   6        0   15.23701E-01 0.175E+02 0.000E+00 0.244E+01 0.244E+01 0.928E+02 0.215E+01 0.906E+01 0.710E+00 0.141E+02 0.322E-01 0.910E-01 0.111E-01 0.180E-03 0.145E-02 0.893E-02 0.430E+01 0.113E-01 0.327E-03 .16034E-02 0.653E+01 0.109E+01 0.000E+00 0.000E+00 0.000E+00
BIGSUB   7        0   15.37963E-01 0.175E+02 0.000E+00 0.244E+01 0.243E+01 0.780E+02 0.142E+01 0.635E+01 0.349E+00 0.146E+02 0.262E-08 0.126E+00 0.154E-01 0.445E-04 0.103E-02 0.122E-01 0.793E+01 0.150E-01 0.113E-03 .47347E-04 0.179E-07 0.122E+01 0.000E+00 0.000E+00 0.000E+00
BIGSUB   8        0   15.27046E+00 0.175E+02 0.000E+00 0.244E+01 0.243E+01 0.851E+02 0.523E+00 0.396E+01 0.130E-01 0.156E+02 0.421E-05 0.219E+00 0.267E-01 0.645E-04 0.565E-03 0.215E-01 0.116E+02 0.322E-01 0.163E-05 .73509E-04 0.360E-03 0.130E+01 0.000E+00 0.000E+00 0.000E+00
BIGSUB   9        0   15.11081E-01 0.175E+02 0.000E+00 0.244E+01 0.230E+01 0.764E+02 0.294E+01 0.568E+01 0.963E+00 0.138E+02 0.715E-08 0.923E-01 0.113E-01 0.632E-02 0.105E-02 0.891E-02 0.713E+01 0.177E-01 0.485E-03 .27105E-03 0.150E-06 0.115E+01 0.000E+00 0.000E+00 0.000E+00
BIGSUB   1        0   16.14970E+00 0.840E+01 0.000E+00 0.276E+01 0.275E+01 0.957E+02 0.319E+00 0.156E+01 0.185E+00 0.800E+01 0.468E-09 0.719E-04 0.879E-05 0.146E-04 0.275E-03 0.696E-05 0.624E+01 0.142E-01 0.574E-04 .58180E-06 0.651E-09 0.663E+00 0.000E+00 0.000E+00 0.000E+00
BIGSUB   2        0   16.20992E+00 0.840E+01 0.000E+00 0.275E+01 0.272E+01 0.109E+03 0.544E+00 0.754E+00 0.405E+00 0.834E+01 0.848E-09 0.110E-02 0.136E-03 0.246E-04 0.130E-03 0.109E-03 0.717E+01 0.162E-01 0.139E-03 .94480E-06 0.349E-08 0.683E+00 0.000E+00 0.000E+00 0.000E+00
BIGSUB   3        0   16.15360E+00 0.840E+01 0.000E+00 0.275E+01 0.271E+01 0.955E+02 0.337E+00 0.329E+00 0.182E+00 0.864E+01 0.201E-08 0.384E-05 0.471E-06 0.118E-04 0.588E-04 0.356E-06 0.812E+01 0.205E-01 0.863E-04 .21175E-06 0.000E+00 0.716E+00 0.000E+00 0.000E+00 0.000E+00
BIGSUB   4        0   16.68097E+00 0.840E+01 0.000E+00 0.276E+01 0.273E+01 0.921E+02 0.239E+00 0.312E+00 0.411E-01 0.860E+01 0.222E-09 0.141E-03 0.180E-04 0.610E-04 0.549E-04 0.148E-04 0.824E+01 0.204E-01 0.790E-05 .23580E-05 0.534E-09 0.712E+00 0.000E+00 0.000E+00 0.000E+00
BIGSUB   5        0   16.53384E+00 0.840E+01 0.000E+00 0.275E+01 0.273E+01 0.103E+03 0.444E+00 0.103E+00 0.294E+00 0.882E+01 0.559E-09 0.413E-02 0.505E-03 0.219E-04 0.722E-05 0.407E-03 0.841E+01 0.213E-01 0.141E-03 .46549E-04 0.107E-07 0.731E+00 0.000E+00 0.000E+00 0.000E+00
BIGSUB   6        0   16.23701E-01 0.840E+01 0.000E+00 0.276E+01 0.275E+01 0.925E+02 0.900E+00 0.338E+01 0.725E+00 0.697E+01 0.378E-08 0.123E-01 0.150E-02 0.976E-04 0.559E-03 0.121E-02 0.284E+01 0.746E-02 0.343E-03 .15972E-03 0.692E-07 0.577E+00 0.000E+00 0.000E+00 0.000E+00
BIGSUB   7        0   16.37963E-01 0.840E+01 0.000E+00 0.276E+01 0.275E+01 0.778E+02 0.571E+00 0.217E+01 0.362E+00 0.741E+01 0.262E-08 0.159E-05 0.195E-06 0.190E-04 0.381E-03 0.149E-06 0.487E+01 0.847E-02 0.119E-03 .75823E-06 0.000E+00 0.614E+00 0.000E+00 0.000E+00 0.000E+00
BIGSUB   8        0   16.27046E+00 0.840E+01 0.000E+00 0.276E+01 0.274E+01 0.848E+02 0.195E+00 0.109E+01 0.134E-01 0.816E+01 0.113E-08 0.218E-05 0.268E-06 0.114E-04 0.192E-03 0.203E-06 0.706E+01 0.174E-01 0.175E-05 .38995E-06 0.000E+00 0.676E+00 0.000E+00 0.000E+00 0.000E+00
BIGSUB   9        0   16.11081E-01 0.840E+01 0.000E+00 0.276E+01 0.260E+01 0.763E+02 0.129E+01 0.180E+01 0.986E+00 0.742E+01 0.715E-08 0.788E-05 0.965E-06 0.458E-02 0.328E-03 0.752E-06 0.459E+01 0.112E-01 0.523E-03 .18269E-03 0.000E+00 0.614E+00 0.000E+00 0.000E+00 0.000E+00
BIGSUB   1        0   17.14970E+00 0.323E+02 0.000E+00 0.294E+01 0.289E+01 0.957E+02 0.138E+01 0.128E+02 0.190E+00 0.251E+02 0.378E+00 0.544E+00 0.665E-01 0.844E-04 0.170E-02 0.533E-01 0.122E+02 0.279E-01 0.617E-04 .22148E-02 0.340E+02 0.171E+01 0.000E+00 0.000E+00 0.000E+00
BIGSUB   2        0   17.20992E+00 0.323E+02 0.000E+00 0.296E+01 0.287E+01 0.109E+03 0.240E+01 0.973E+01 0.417E+00 0.240E+02 0.408E+00 0.609E+00 0.745E-01 0.165E-03 0.109E-02 0.597E-01 0.139E+02 0.313E-01 0.149E-03 .28342E-02 0.383E+02 0.151E+01 0.000E+00 0.000E+00 0.000E+00
BIGSUB   3        0   17.15360E+00 0.323E+02 0.000E+00 0.294E+01 0.285E+01 0.954E+02 0.142E+01 0.933E+01 0.186E+00 0.246E+02 0.728E+00 0.826E+00 0.101E+00 0.293E-03 0.882E-03 0.814E-01 0.151E+02 0.390E-01 0.906E-04 .35620E-02 0.627E+02 0.146E+01 0.000E+00 0.000E+00 0.000E+00
BIGSUB   4        0   17.68097E+00 0.323E+02 0.000E+00 0.294E+01 0.286E+01 0.920E+02 0.945E+00 0.940E+01 0.423E-01 0.249E+02 0.663E+00 0.873E+00 0.107E+00 0.232E-03 0.775E-03 0.859E-01 0.154E+02 0.388E-01 0.864E-05 .38325E-02 0.601E+02 0.145E+01 0.000E+00 0.000E+00 0.000E+00
BIGSUB   5        0   17.53384E+00 0.323E+02 0.000E+00 0.294E+01 0.286E+01 0.103E+03 0.197E+01 0.808E+01 0.301E+00 0.239E+02 0.777E+00 0.897E+00 0.110E+00 0.140E-03 0.451E-03 0.883E-01 0.155E+02 0.397E-01 0.148E-03 .45681E-02 0.725E+02 0.134E+01 0.000E+00 0.000E+00 0.000E+00
BIGSUB   6        0   17.23701E-01 0.323E+02 0.000E+00 0.294E+01 0.291E+01 0.926E+02 0.354E+01 0.197E+02 0.743E+00 0.251E+02 0.117E+00 0.206E+00 0.252E-01 0.169E-03 0.307E-02 0.200E-01 0.461E+01 0.110E-01 0.361E-03 .30531E-02 0.235E+02 0.179E+01 0.000E+00 0.000E+00 0.000E+00
BIGSUB   7        0   17.37963E-01 0.323E+02 0.000E+00 0.294E+01 0.289E+01 0.779E+02 0.219E+01 0.158E+02 0.377E+00 0.252E+02 0.136E+00 0.426E+00 0.521E-01 0.784E-04 0.231E-02 0.412E-01 0.898E+01 0.159E-01 0.126E-03 .19940E-02 0.167E+02 0.172E+01 0.000E+00 0.000E+00 0.000E+00
BIGSUB   8        0   17.27046E+00 0.323E+02 0.000E+00 0.294E+01 0.287E+01 0.848E+02 0.739E+00 0.122E+02 0.139E-01 0.254E+02 0.501E+00 0.732E+00 0.895E-01 0.131E-03 0.140E-02 0.719E-01 0.133E+02 0.332E-01 0.189E-05 .31903E-02 0.467E+02 0.159E+01 0.000E+00 0.000E+00 0.000E+00
BIGSUB   9        0   17.11081E-01 0.323E+02 0.000E+00 0.294E+01 0.275E+01 0.765E+02 0.438E+01 0.151E+02 0.101E+01 0.240E+02 0.828E-01 0.307E+00 0.376E-01 0.664E-02 0.278E-02 0.296E-01 0.787E+01 0.176E-01 0.566E-03 .17429E-02 0.108E+02 0.168E+01 0.000E+00 0.000E+00 0.000E+00
BIGSUB   1        0   18.14970E+00 0.250E+01 0.000E+00 0.254E+01 0.250E+01 0.949E+02 0.445E-01 0.205E+00 0.195E+00 0.491E+01 0.468E-09 0.100E-08 0.100E-08 0.423E-05 0.359E-04 0.200E-08 0.450E+01 0.960E-02 0.652E-04 .16831E-06 0.000E+00 0.406E+00 0.000E+00 0.000E+00 0.000E+00
BIGSUB   2        0   18.20992E+00 0.250E+01 0.000E+00 0.254E+01 0.249E+01 0.108E+03 0.204E-01 0.101E+00 0.426E+00 0.568E+01 0.848E-09 0.989E-09 0.989E-09 0.602E-05 0.175E-04 0.198E-08 0.513E+01 0.108E-01 0.156E-03 .23980E-06 0.000E+00 0.463E+00 0.000E+00 0.000E+00 0.000E+00
BIGSUB   3        0   18.15360E+00 0.250E+01 0.000E+00 0.253E+01 0.246E+01 0.947E+02 0.904E-02 0.434E-01 0.190E+00 0.594E+01 0.833E-09 0.140E-05 0.172E-06 0.147E-05 0.776E-05 0.131E-06 0.570E+01 0.135E-01 0.938E-04 .63989E-07 0.000E+00 0.490E+00 0.000E+00 0.000E+00 0.000E+00
BIGSUB   4        0   18.68097E+00 0.250E+01 0.000E+00 0.254E+01 0.247E+01 0.913E+02 0.857E-02 0.456E-01 0.433E-01 0.587E+01 0.222E-09 0.240E-06 0.298E-07 0.170E-04 0.809E-05 0.200E-07 0.578E+01 0.135E-01 0.925E-05 .67601E-06 0.000E+00 0.485E+00 0.000E+00 0.000E+00 0.000E+00
BIGSUB   5        0   18.53384E+00 0.250E+01 0.000E+00 0.253E+01 0.247E+01 0.102E+03 0.527E-03 0.471E-02 0.307E+00 0.630E+01 0.219E-09 0.484E-04 0.592E-05 0.811E-06 0.655E-06 0.475E-05 0.597E+01 0.141E-01 0.154E-03 .79378E-07 0.337E-09 0.520E+00 0.000E+00 0.000E+00 0.000E+00
BIGSUB   6        0   18.23701E-01 0.250E+01 0.000E+00 0.254E+01 0.253E+01 0.920E+02 0.784E-01 0.415E+00 0.757E+00 0.338E+01 0.378E-08 0.136E-03 0.166E-04 0.112E-04 0.725E-04 0.134E-04 0.218E+01 0.496E-02 0.375E-03 .35683E-06 0.517E-08 0.279E+00 0.000E+00 0.000E+00 0.000E+00
BIGSUB   7        0   18.37963E-01 0.250E+01 0.000E+00 0.254E+01 0.252E+01 0.772E+02 0.534E-01 0.327E+00 0.390E+00 0.415E+01 0.262E-08 0.452E-04 0.553E-05 0.564E-05 0.578E-04 0.418E-05 0.341E+01 0.557E-02 0.132E-03 .22859E-06 0.000E+00 0.342E+00 0.000E+00 0.000E+00 0.000E+00
BIGSUB   8        0   18.27046E+00 0.250E+01 0.000E+00 0.254E+01 0.248E+01 0.841E+02 0.267E-01 0.186E+00 0.143E-01 0.514E+01 0.463E-09 0.794E-06 0.980E-07 0.282E-05 0.329E-04 0.750E-07 0.494E+01 0.114E-01 0.200E-05 .11530E-06 0.000E+00 0.424E+00 0.000E+00 0.000E+00 0.000E+00
BIGSUB   9        0   18.11081E-01 0.250E+01 0.000E+00 0.254E+01 0.239E+01 0.760E+02 0.385E-01 0.293E+00 0.103E+01 0.467E+01 0.715E-08 0.226E-04 0.276E-05 0.134E-02 0.533E-04 0.215E-05 0.330E+01 0.779E-02 0.600E-03 .53473E-04 0.000E+00 0.386E+00 0.000E+00 0.000E+00 0.000E+00
BIGSUB   1        0   19.14970E+00 0.107E+02 0.000E+00 0.223E+01 0.222E+01 0.960E+02 0.276E+00 0.220E+01 0.199E+00 0.719E+01 0.385E-02 0.506E-02 0.618E-03 0.177E-04 0.384E-03 0.497E-03 0.478E+01 0.708E-02 0.682E-04 .78096E-06 0.138E-01 0.595E+00 0.000E+00 0.000E+00 0.000E+00
BIGSUB   2        0   19.20992E+00 0.107E+02 0.000E+00 0.222E+01 0.220E+01 0.110E+03 0.540E+00 0.111E+01 0.436E+00 0.706E+01 0.565E-02 0.938E-02 0.115E-02 0.350E-04 0.185E-03 0.923E-03 0.550E+01 0.838E-02 0.163E-03 .40070E-05 0.865E-01 0.573E+00 0.000E+00 0.000E+00 0.000E+00
BIGSUB   3        0   19.15360E+00 0.107E+02 0.000E+00 0.222E+01 0.219E+01 0.960E+02 0.305E+00 0.533E+00 0.193E+00 0.691E+01 0.737E-02 0.778E-02 0.951E-03 0.364E-04 0.905E-04 0.768E-03 0.618E+01 0.984E-02 0.966E-04 .26926E-06 0.185E-01 0.570E+00 0.000E+00 0.000E+00 0.000E+00
BIGSUB   4        0   19.68097E+00 0.107E+02 0.000E+00 0.222E+01 0.220E+01 0.926E+02 0.161E+00 0.501E+00 0.443E-01 0.683E+01 0.698E-02 0.860E-02 0.105E-02 0.771E-04 0.817E-04 0.849E-03 0.628E+01 0.964E-02 0.982E-05 .34702E-05 0.397E-01 0.563E+00 0.000E+00 0.000E+00 0.000E+00
BIGSUB   5        0   19.53384E+00 0.107E+02 0.000E+00 0.222E+01 0.220E+01 0.103E+03 0.420E+00 0.217E+00 0.313E+00 0.692E+01 0.184E-01 0.156E-01 0.191E-02 0.249E-04 0.134E-04 0.154E-02 0.638E+01 0.102E-01 0.159E-03 .15193E-03 0.183E+01 0.560E+00 0.000E+00 0.000E+00 0.000E+00
BIGSUB   6        0   19.23701E-01 0.107E+02 0.000E+00 0.223E+01 0.222E+01 0.927E+02 0.101E+01 0.473E+01 0.771E+00 0.763E+01 0.224E-01 0.234E-01 0.286E-02 0.966E-04 0.780E-03 0.230E-02 0.210E+01 0.440E-02 0.387E-03 .49897E-03 0.443E+01 0.597E+00 0.000E+00 0.000E+00 0.000E+00
BIGSUB   7        0   19.37963E-01 0.107E+02 0.000E+00 0.223E+01 0.222E+01 0.782E+02 0.598E+00 0.301E+01 0.402E+00 0.717E+01 0.141E-02 0.412E-02 0.504E-03 0.225E-04 0.529E-03 0.399E-03 0.374E+01 0.515E-02 0.137E-03 .83932E-06 0.488E-02 0.594E+00 0.000E+00 0.000E+00 0.000E+00
BIGSUB   8        0   19.27046E+00 0.107E+02 0.000E+00 0.223E+01 0.221E+01 0.853E+02 0.120E+00 0.154E+01 0.148E-01 0.694E+01 0.507E-02 0.695E-02 0.849E-03 0.191E-04 0.266E-03 0.683E-03 0.538E+01 0.818E-02 0.211E-05 .43972E-06 0.136E-01 0.573E+00 0.000E+00 0.000E+00 0.000E+00
BIGSUB   9        0   19.11081E-01 0.107E+02 0.000E+00 0.223E+01 0.211E+01 0.770E+02 0.155E+01 0.253E+01 0.106E+01 0.716E+01 0.839E-03 0.289E-02 0.353E-03 0.526E-02 0.467E-03 0.279E-03 0.353E+01 0.733E-02 0.631E-03 .20637E-03 0.307E-02 0.594E+00 0.000E+00 0.000E+00 0.000E+00
BIGSUB   1        0   20.14970E+00 0.860E+01 0.000E+00 0.456E+01 0.406E+01 0.943E+02 0.360E+00 0.162E+01 0.203E+00 0.629E+01 0.468E-09 0.510E-04 0.623E-05 0.137E-04 0.286E-03 0.493E-05 0.446E+01 0.852E-02 0.709E-04 .54809E-06 0.990E-09 0.519E+00 0.000E+00 0.000E+00 0.000E+00
BIGSUB   2        0   20.20992E+00 0.860E+01 0.000E+00 0.460E+01 0.397E+01 0.108E+03 0.608E+00 0.779E+00 0.444E+00 0.639E+01 0.848E-09 0.788E-03 0.979E-04 0.233E-04 0.135E-03 0.780E-04 0.514E+01 0.991E-02 0.169E-03 .92205E-06 0.530E-08 0.521E+00 0.000E+00 0.000E+00 0.000E+00
BIGSUB   3        0   20.15360E+00 0.860E+01 0.000E+00 0.458E+01 0.389E+01 0.943E+02 0.382E+00 0.340E+00 0.197E+00 0.640E+01 0.807E-09 0.508E-06 0.631E-07 0.128E-04 0.613E-04 0.487E-07 0.586E+01 0.123E-01 0.990E-04 .18411E-06 0.000E+00 0.529E+00 0.000E+00 0.000E+00 0.000E+00
BIGSUB   4        0   20.68097E+00 0.860E+01 0.000E+00 0.456E+01 0.389E+01 0.909E+02 0.280E+00 0.321E+00 0.452E-01 0.632E+01 0.222E-09 0.100E-03 0.128E-04 0.565E-04 0.569E-04 0.106E-04 0.595E+01 0.121E-01 0.103E-04 .21859E-05 0.812E-09 0.522E+00 0.000E+00 0.000E+00 0.000E+00
BIGSUB   5        0   20.53384E+00 0.860E+01 0.000E+00 0.457E+01 0.387E+01 0.102E+03 0.503E+00 0.107E+00 0.318E+00 0.645E+01 0.211E-09 0.274E-02 0.335E-03 0.208E-04 0.717E-05 0.271E-03 0.601E+01 0.127E-01 0.163E-03 .40620E-04 0.817E-08 0.532E+00 0.000E+00 0.000E+00 0.000E+00
BIGSUB   6        0   20.23701E-01 0.860E+01 0.000E+00 0.456E+01 0.424E+01 0.909E+02 0.977E+00 0.349E+01 0.783E+00 0.619E+01 0.378E-08 0.821E-02 0.100E-02 0.899E-04 0.582E-03 0.809E-03 0.189E+01 0.468E-02 0.397E-03 .13912E-03 0.896E-07 0.511E+00 0.000E+00 0.000E+00 0.000E+00
BIGSUB   7        0   20.37963E-01 0.860E+01 0.000E+00 0.455E+01 0.413E+01 0.764E+02 0.629E+00 0.222E+01 0.414E+00 0.615E+01 0.262E-08 0.127E-06 0.164E-07 0.182E-04 0.394E-03 0.136E-07 0.349E+01 0.548E-02 0.141E-03 .72918E-06 0.000E+00 0.508E+00 0.000E+00 0.000E+00 0.000E+00
BIGSUB   8        0   20.27046E+00 0.860E+01 0.000E+00 0.456E+01 0.399E+01 0.836E+02 0.227E+00 0.111E+01 0.152E-01 0.623E+01 0.448E-09 0.289E-06 0.363E-07 0.113E-04 0.198E-03 0.285E-07 0.510E+01 0.103E-01 0.221E-05 .36489E-06 0.000E+00 0.515E+00 0.000E+00 0.000E+00 0.000E+00
BIGSUB   9        0   20.11081E-01 0.860E+01 0.000E+00 0.455E+01 0.389E+01 0.754E+02 0.138E+01 0.186E+01 0.107E+01 0.626E+01 0.715E-08 0.111E-08 0.997E-09 0.441E-02 0.340E-03 0.199E-08 0.329E+01 0.728E-02 0.659E-03 .17596E-03 0.000E+00 0.517E+00 0.000E+00 0.000E+00 0.000E+00
BIGSUB   1        0   21.14970E+00 0.180E+01 0.000E+00 0.444E+01 0.359E+01 0.921E+02 0.430E-01 0.952E-01 0.207E+00 0.201E+01 0.468E-09 0.100E-08 0.100E-08 0.215E-05 0.169E-04 0.200E-08 0.170E+01 0.294E-02 0.729E-04 .85218E-07 0.000E+00 0.166E+00 0.000E+00 0.000E+00 0.000E+00
BIGSUB   2        0   21.20992E+00 0.180E+01 0.000E+00 0.446E+01 0.343E+01 0.106E+03 0.197E-01 0.457E-01 0.451E+00 0.248E+01 0.848E-09 0.989E-09 0.989E-09 0.294E-05 0.803E-05 0.198E-08 0.196E+01 0.343E-02 0.174E-03 .11627E-06 0.000E+00 0.202E+00 0.000E+00 0.000E+00 0.000E+00
BIGSUB   3        0   21.15360E+00 0.180E+01 0.000E+00 0.444E+01 0.328E+01 0.925E+02 0.870E-02 0.197E-01 0.199E+00 0.250E+01 0.807E-09 0.307E-06 0.384E-07 0.721E-06 0.353E-05 0.302E-07 0.228E+01 0.431E-02 0.100E-03 .28296E-07 0.000E+00 0.207E+00 0.000E+00 0.000E+00 0.000E+00
BIGSUB   4        0   21.68097E+00 0.180E+01 0.000E+00 0.444E+01 0.328E+01 0.891E+02 0.825E-02 0.196E-01 0.460E-01 0.237E+01 0.222E-09 0.737E-08 0.178E-08 0.812E-05 0.349E-05 0.259E-08 0.230E+01 0.423E-02 0.107E-04 .32145E-06 0.000E+00 0.196E+00 0.000E+00 0.000E+00 0.000E+00
BIGSUB   5        0   21.53384E+00 0.180E+01 0.000E+00 0.444E+01 0.324E+01 0.100E+03 0.465E-03 0.123E-02 0.322E+00 0.271E+01 0.211E-09 0.188E-06 0.238E-07 0.341E-07 0.226E-06 0.194E-07 0.237E+01 0.456E-02 0.166E-03 .11156E-08 0.000E+00 0.224E+00 0.000E+00 0.000E+00 0.000E+00
BIGSUB   6        0   21.23701E-01 0.180E+01 0.000E+00 0.445E+01 0.396E+01 0.884E+02 0.754E-01 0.188E+00 0.794E+00 0.192E+01 0.378E-08 0.120E-07 0.220E-08 0.437E-05 0.336E-04 0.287E-08 0.910E+00 0.220E-02 0.404E-03 .17338E-06 0.000E+00 0.159E+00 0.000E+00 0.000E+00 0.000E+00
BIGSUB   7        0   21.37963E-01 0.180E+01 0.000E+00 0.445E+01 0.371E+01 0.742E+02 0.515E-01 0.139E+00 0.424E+00 0.194E+01 0.262E-08 0.791E-08 0.183E-08 0.283E-05 0.247E-04 0.261E-08 0.136E+01 0.194E-02 0.144E-03 .11189E-06 0.000E+00 0.161E+00 0.000E+00 0.000E+00 0.000E+00
BIGSUB   8        0   21.27046E+00 0.180E+01 0.000E+00 0.444E+01 0.345E+01 0.815E+02 0.258E-01 0.714E-01 0.155E-01 0.204E+01 0.448E-09 0.175E-06 0.223E-07 0.145E-05 0.127E-04 0.180E-07 0.195E+01 0.356E-02 0.228E-05 .57177E-07 0.000E+00 0.169E+00 0.000E+00 0.000E+00 0.000E+00
BIGSUB   9        0   21.11081E-01 0.180E+01 0.000E+00 0.445E+01 0.349E+01 0.734E+02 0.377E-01 0.114E+00 0.109E+01 0.271E+01 0.715E-08 0.997E-09 0.997E-09 0.636E-03 0.208E-04 0.199E-08 0.146E+01 0.348E-02 0.679E-03 .25074E-04 0.000E+00 0.224E+00 0.000E+00 0.000E+00 0.000E+00
BIGSUB   1        0   22.14970E+00 0.810E+01 0.000E+00 0.436E+01 0.390E+01 0.924E+02 0.409E-01 0.149E+01 0.210E+00 0.388E+01 0.468E-09 0.100E-08 0.100E-08 0.183E-04 0.266E-03 0.200E-08 0.217E+01 0.113E-02 0.742E-04 .72779E-06 0.000E+00 0.322E+00 0.000E+00 0.000E+00 0.000E+00
BIGSUB   2        0   22.20992E+00 0.810E+01 0.000E+00 0.439E+01 0.381E+01 0.107E+03 0.366E-01 0.710E+00 0.457E+00 0.369E+01 0.136E-03 0.348E-03 0.432E-04 0.285E-04 0.125E-03 0.346E-04 0.250E+01 0.142E-02 0.177E-03 .11342E-05 0.519E-02 0.302E+00 0.000E+00 0.000E+00 0.000E+00
BIGSUB   3        0   22.15360E+00 0.810E+01 0.000E+00 0.437E+01 0.374E+01 0.932E+02 0.591E-01 0.308E+00 0.201E+00 0.344E+01 0.807E-09 0.185E-06 0.236E-07 0.116E-04 0.555E-04 0.190E-07 0.292E+01 0.174E-02 0.101E-03 .23879E-06 0.000E+00 0.286E+00 0.000E+00 0.000E+00 0.000E+00
BIGSUB   4        0   22.68097E+00 0.810E+01 0.000E+00 0.436E+01 0.374E+01 0.898E+02 0.219E-01 0.291E+00 0.467E-01 0.332E+01 0.372E-04 0.580E-04 0.738E-05 0.709E-04 0.519E-04 0.611E-05 0.298E+01 0.164E-02 0.111E-04 .27998E-05 0.294E-02 0.276E+00 0.000E+00 0.000E+00 0.000E+00
BIGSUB   5        0   22.53384E+00 0.810E+01 0.000E+00 0.437E+01 0.372E+01 0.101E+03 0.544E-01 0.939E-01 0.325E+00 0.343E+01 0.211E-02 0.190E-02 0.233E-03 0.249E-04 0.630E-05 0.188E-03 0.300E+01 0.182E-02 0.167E-03 .40655E-04 0.470E+00 0.279E+00 0.000E+00 0.000E+00 0.000E+00
BIGSUB   6        0   22.23701E-01 0.810E+01 0.000E+00 0.436E+01 0.408E+01 0.881E+02 0.198E+00 0.319E+01 0.802E+00 0.496E+01 0.433E-02 0.534E-02 0.653E-03 0.113E-03 0.538E-03 0.526E-03 0.936E+00 0.122E-02 0.408E-03 .12711E-03 0.108E+01 0.391E+00 0.000E+00 0.000E+00 0.000E+00
BIGSUB   7        0   22.37963E-01 0.810E+01 0.000E+00 0.436E+01 0.398E+01 0.744E+02 0.118E+00 0.201E+01 0.433E+00 0.412E+01 0.262E-08 0.141E-08 0.104E-08 0.249E-04 0.358E-03 0.202E-08 0.167E+01 0.903E-03 0.146E-03 .99516E-06 0.000E+00 0.343E+00 0.000E+00 0.000E+00 0.000E+00
BIGSUB   8        0   22.27046E+00 0.810E+01 0.000E+00 0.436E+01 0.384E+01 0.819E+02 0.257E-01 0.997E+00 0.158E-01 0.356E+01 0.448E-09 0.106E-06 0.138E-07 0.140E-04 0.178E-03 0.116E-07 0.255E+01 0.134E-02 0.234E-05 .49443E-06 0.000E+00 0.296E+00 0.000E+00 0.000E+00 0.000E+00
BIGSUB   9        0   22.11081E-01 0.810E+01 0.000E+00 0.436E+01 0.376E+01 0.740E+02 0.467E+00 0.166E+01 0.111E+01 0.447E+01 0.715E-08 0.997E-09 0.997E-09 0.569E-02 0.305E-03 0.199E-08 0.166E+01 0.250E-02 0.694E-03 .22737E-03 0.000E+00 0.371E+00 0.000E+00 0.000E+00 0.000E+00
BIGSUB   1        0   23.14970E+00 0.000E+00 0.000E+00 0.418E+01 0.263E+01 0.897E+02 0.387E-01 0.196E-04 0.212E+00 0.968E+00 0.468E-09 0.100E-08 0.100E-08 0.101E-08 0.411E-08 0.200E-08 0.747E+00 0.389E-03 0.751E-04 .30811E-13 0.000E+00 0.799E-01 0.000E+00 0.000E+00 0.000E+00
BIGSUB   2        0   23.20992E+00 0.000E+00 0.000E+00 0.419E+01 0.243E+01 0.104E+03 0.177E-01 0.828E-03 0.462E+00 0.135E+01 0.848E-09 0.989E-09 0.989E-09 0.109E-07 0.147E-06 0.198E-08 0.864E+00 0.494E-03 0.179E-03 .39158E-09 0.000E+00 0.110E+00 0.000E+00 0.000E+00 0.000E+00
BIGSUB   3        0   23.15360E+00 0.000E+00 0.000E+00 0.417E+01 0.225E+01 0.910E+02 0.784E-02 0.169E-03 0.203E+00 0.124E+01 0.807E-09 0.112E-06 0.146E-07 0.371E-08 0.419E-07 0.122E-07 0.103E+01 0.619E-03 0.102E-03 .66810E-11 0.000E+00 0.102E+00 0.000E+00 0.000E+00 0.000E+00
BIGSUB   4        0   23.68097E+00 0.000E+00 0.000E+00 0.418E+01 0.224E+01 0.876E+02 0.744E-02 0.101E-02 0.473E-01 0.109E+01 0.222E-09 0.184E-08 0.110E-08 0.150E-07 0.182E-06 0.208E-08 0.103E+01 0.584E-03 0.113E-04 .52430E-09 0.000E+00 0.896E-01 0.000E+00 0.000E+00 0.000E+00
BIGSUB   5        0   23.53384E+00 0.000E+00 0.000E+00 0.417E+01 0.218E+01 0.987E+02 0.417E-03 0.804E-04 0.328E+00 0.141E+01 0.211E-09 0.341E-07 0.503E-08 0.879E-08 0.167E-07 0.503E-08 0.107E+01 0.688E-03 0.168E-03 .75973E-11 0.000E+00 0.117E+00 0.000E+00 0.000E+00 0.000E+00
BIGSUB   6        0   23.23701E-01 0.000E+00 0.000E+00 0.418E+01 0.310E+01 0.850E+02 0.671E-01 0.121E-02 0.809E+00 0.127E+01 0.378E-08 0.795E-08 0.173E-08 0.154E-07 0.216E-06 0.250E-08 0.429E+00 0.606E-03 0.410E-03 .52720E-09 0.000E+00 0.105E+00 0.000E+00 0.000E+00 0.000E+00
BIGSUB   7        0   23.37963E-01 0.000E+00 0.000E+00 0.418E+01 0.284E+01 0.715E+02 0.457E-01 0.117E-01 0.440E+00 0.107E+01 0.262E-08 0.102E-08 0.997E-09 0.113E-06 0.207E-05 0.199E-08 0.598E+00 0.330E-03 0.148E-03 .41893E-08 0.000E+00 0.882E-01 0.000E+00 0.000E+00 0.000E+00
BIGSUB   8        0   23.27046E+00 0.000E+00 0.000E+00 0.418E+01 0.249E+01 0.794E+02 0.229E-01 0.914E-02 0.161E-01 0.903E+00 0.448E-09 0.641E-07 0.872E-08 0.115E-06 0.164E-05 0.781E-08 0.875E+00 0.463E-03 0.238E-05 .41964E-08 0.000E+00 0.745E-01 0.000E+00 0.000E+00 0.000E+00
BIGSUB   9        0   23.11081E-01 0.000E+00 0.000E+00 0.418E+01 0.264E+01 0.713E+02 0.335E-01 0.127E-01 0.112E+01 0.189E+01 0.715E-08 0.997E-09 0.997E-09 0.413E-04 0.232E-05 0.199E-08 0.722E+00 0.143E-02 0.704E-03 .14555E-05 0.000E+00 0.156E+00 0.000E+00 0.000E+00 0.000E+00
BIGSUB   1        0   24.14970E+00 0.000E+00 0.000E+00 0.475E+01 0.217E+01 0.875E+02 0.366E-01 0.100E-05 0.214E+00 0.480E+00 0.468E-09 0.100E-08 0.100E-08 0.100E-08 0.100E-08 0.200E-08 0.256E+00 0.134E-03 0.754E-04 .58718E-17 0.000E+00 0.399E-01 0.000E+00 0.000E+00 0.000E+00
BIGSUB   2        0   24.20992E+00 0.000E+00 0.000E+00 0.477E+01 0.210E+01 0.102E+03 0.167E-01 0.702E-04 0.466E+00 0.785E+00 0.848E-09 0.989E-09 0.989E-09 0.182E-08 0.132E-07 0.198E-08 0.300E+00 0.173E-03 0.179E-03 .29732E-10 0.000E+00 0.645E-01 0.000E+00 0.000E+00 0.000E+00
BIGSUB   3        0   24.15360E+00 0.000E+00 0.000E+00 0.475E+01 0.196E+01 0.890E+02 0.741E-02 0.101E-03 0.204E+00 0.579E+00 0.807E-09 0.680E-07 0.920E-08 0.263E-08 0.254E-07 0.817E-08 0.365E+00 0.224E-03 0.101E-03 .14915E-11 0.000E+00 0.481E-01 0.000E+00 0.000E+00 0.000E+00
BIGSUB   4        0   24.68097E+00 0.000E+00 0.000E+00 0.475E+01 0.195E+01 0.856E+02 0.703E-02 0.185E-03 0.477E-01 0.413E+00 0.222E-09 0.131E-08 0.104E-08 0.323E-08 0.339E-07 0.203E-08 0.361E+00 0.212E-03 0.114E-04 .83904E-10 0.000E+00 0.343E-01 0.000E+00 0.000E+00 0.000E+00
BIGSUB   5        0   24.53384E+00 0.000E+00 0.000E+00 0.475E+01 0.194E+01 0.968E+02 0.393E-03 0.318E-04 0.330E+00 0.735E+00 0.211E-09 0.203E-07 0.336E-08 0.194E-08 0.829E-08 0.378E-08 0.390E+00 0.269E-03 0.167E-03 .43129E-12 0.000E+00 0.611E-01 0.000E+00 0.000E+00 0.000E+00
BIGSUB   6        0   24.23701E-01 0.000E+00 0.000E+00 0.475E+01 0.242E+01 0.825E+02 0.629E-01 0.527E-04 0.814E+00 0.105E+01 0.378E-08 0.100E-08 0.100E-08 0.163E-08 0.102E-07 0.200E-08 0.204E+00 0.307E-03 0.409E-03 .18883E-10 0.000E+00 0.874E-01 0.000E+00 0.000E+00 0.000E+00
BIGSUB   7        0   24.37963E-01 0.000E+00 0.000E+00 0.474E+01 0.224E+01 0.692E+02 0.427E-01 0.543E-02 0.447E+00 0.690E+00 0.262E-08 0.999E-09 0.997E-09 0.483E-07 0.963E-06 0.199E-08 0.219E+00 0.124E-03 0.148E-03 .18833E-08 0.000E+00 0.573E-01 0.000E+00 0.000E+00 0.000E+00
BIGSUB   8        0   24.27046E+00 0.000E+00 0.000E+00 0.475E+01 0.206E+01 0.773E+02 0.214E-01 0.428E-03 0.163E-01 0.320E+00 0.448E-09 0.391E-07 0.565E-08 0.646E-08 0.808E-07 0.550E-08 0.301E+00 0.159E-03 0.240E-05 .13360E-09 0.000E+00 0.266E-01 0.000E+00 0.000E+00 0.000E+00
BIGSUB   9        0   24.11081E-01 0.000E+00 0.000E+00 0.474E+01 0.220E+01 0.691E+02 0.312E-01 0.165E-03 0.113E+01 0.152E+01 0.715E-08 0.997E-09 0.997E-09 0.608E-06 0.310E-07 0.199E-08 0.351E+00 0.878E-03 0.709E-03 .10151E-07 0.000E+00 0.126E+00 0.000E+00 0.000E+00 0.000E+00
BIGSUB   1        0   25.14970E+00 0.660E+01 0.000E+00 0.537E+01 0.390E+01 0.873E+02 0.343E-01 0.111E+01 0.215E+00 0.258E+01 0.468E-09 0.100E-08 0.100E-08 0.246E-04 0.200E-03 0.200E-08 0.124E+01 0.160E-03 0.753E-04 .98106E-06 0.000E+00 0.211E+00 0.000E+00 0.000E+00 0.000E+00
BIGSUB   2        0   25.20992E+00 0.660E+01 0.000E+00 0.541E+01 0.380E+01 0.103E+03 0.156E-01 0.523E+00 0.469E+00 0.240E+01 0.214E-04 0.328E-04 0.418E-05 0.333E-04 0.931E-04 0.348E-05 0.139E+01 0.219E-03 0.179E-03 .12809E-05 0.103E-02 0.194E+00 0.000E+00 0.000E+00 0.000E+00
BIGSUB   3        0   25.15360E+00 0.660E+01 0.000E+00 0.538E+01 0.359E+01 0.894E+02 0.695E-02 0.225E+00 0.205E+00 0.214E+01 0.807E-09 0.414E-07 0.594E-08 0.817E-05 0.405E-04 0.572E-08 0.170E+01 0.342E-03 0.101E-03 .31091E-06 0.000E+00 0.175E+00 0.000E+00 0.000E+00 0.000E+00
BIGSUB   4        0   25.68097E+00 0.660E+01 0.000E+00 0.538E+01 0.357E+01 0.859E+02 0.659E-02 0.214E+00 0.481E-01 0.201E+01 0.160E-04 0.244E-04 0.310E-05 0.857E-04 0.385E-04 0.258E-05 0.174E+01 0.249E-03 0.115E-04 .33943E-05 0.799E-03 0.164E+00 0.000E+00 0.000E+00 0.000E+00
BIGSUB   5        0   25.53384E+00 0.660E+01 0.000E+00 0.538E+01 0.356E+01 0.973E+02 0.367E-03 0.607E-01 0.331E+00 0.212E+01 0.162E-02 0.140E-02 0.171E-03 0.326E-04 0.425E-05 0.138E-03 0.171E+01 0.263E-03 0.166E-03 .33955E-04 0.363E+00 0.170E+00 0.000E+00 0.000E+00 0.000E+00
BIGSUB   6        0   25.23701E-01 0.660E+01 0.000E+00 0.537E+01 0.436E+01 0.818E+02 0.584E-01 0.234E+01 0.817E+00 0.360E+01 0.339E-02 0.418E-02 0.511E-03 0.151E-03 0.401E-03 0.412E-03 0.410E+00 0.193E-03 0.406E-03 .11485E-03 0.906E+00 0.281E+00 0.000E+00 0.000E+00 0.000E+00
BIGSUB   7        0   25.37963E-01 0.660E+01 0.000E+00 0.537E+01 0.421E+01 0.689E+02 0.396E-01 0.142E+01 0.452E+00 0.275E+01 0.262E-08 0.997E-09 0.997E-09 0.334E-04 0.255E-03 0.199E-08 0.859E+00 0.118E-03 0.147E-03 .13350E-05 0.000E+00 0.225E+00 0.000E+00 0.000E+00 0.000E+00
BIGSUB   8        0   25.27046E+00 0.660E+01 0.000E+00 0.538E+01 0.378E+01 0.773E+02 0.199E-01 0.705E+00 0.164E-01 0.222E+01 0.448E-09 0.239E-07 0.380E-08 0.167E-04 0.127E-03 0.411E-08 0.150E+01 0.201E-03 0.240E-05 .66380E-06 0.000E+00 0.182E+00 0.000E+00 0.000E+00 0.000E+00
BIGSUB   9        0   25.11081E-01 0.660E+01 0.000E+00 0.537E+01 0.410E+01 0.693E+02 0.288E-01 0.115E+01 0.113E+01 0.315E+01 0.715E-08 0.997E-09 0.997E-09 0.688E-02 0.212E-03 0.199E-08 0.822E+00 0.812E-03 0.709E-03 .27461E-03 0.000E+00 0.258E+00 0.000E+00 0.000E+00 0.000E+00
BIGSUB   1        0   26.14970E+00 0.000E+00 0.000E+00 0.498E+01 0.233E+01 0.849E+02 0.316E-01 0.148E-04 0.216E+00 0.652E+00 0.468E-09 0.100E-08 0.100E-08 0.107E-08 0.329E-08 0.200E-08 0.426E+00 0.551E-04 0.749E-04 .18937E-13 0.000E+00 0.534E-01 0.000E+00 0.000E+00 0.000E+00
BIGSUB   2        0   26.20992E+00 0.000E+00 0.000E+00 0.502E+01 0.228E+01 0.100E+03 0.144E-01 0.609E-03 0.471E+00 0.970E+00 0.848E-09 0.989E-09 0.989E-09 0.142E-07 0.109E-06 0.198E-08 0.480E+00 0.769E-04 0.178E-03 .51583E-09 0.000E+00 0.785E-01 0.000E+00 0.000E+00 0.000E+00
BIGSUB   3        0   26.15360E+00 0.000E+00 0.000E+00 0.499E+01 0.210E+01 0.873E+02 0.640E-02 0.392E-04 0.206E+00 0.806E+00 0.807E-09 0.253E-07 0.398E-08 0.161E-08 0.102E-07 0.424E-08 0.590E+00 0.122E-03 0.994E-04 .74444E-13 0.000E+00 0.660E-01 0.000E+00 0.000E+00 0.000E+00
BIGSUB   4        0   26.68097E+00 0.000E+00 0.000E+00 0.498E+01 0.208E+01 0.839E+02 0.608E-02 0.707E-03 0.483E-01 0.655E+00 0.222E-09 0.104E-08 0.100E-08 0.187E-07 0.128E-06 0.200E-08 0.602E+00 0.907E-04 0.114E-04 .66061E-09 0.000E+00 0.536E-01 0.000E+00 0.000E+00 0.000E+00
BIGSUB   5        0   26.53384E+00 0.000E+00 0.000E+00 0.499E+01 0.208E+01 0.953E+02 0.337E-03 0.314E-04 0.332E+00 0.951E+00 0.211E-09 0.853E-08 0.190E-08 0.109E-07 0.615E-08 0.267E-08 0.604E+00 0.100E-03 0.164E-03 .30534E-11 0.000E+00 0.779E-01 0.000E+00 0.000E+00 0.000E+00
BIGSUB   6        0   26.23701E-01 0.000E+00 0.000E+00 0.498E+01 0.264E+01 0.791E+02 0.531E-01 0.897E-03 0.819E+00 0.103E+01 0.378E-08 0.646E-08 0.155E-08 0.205E-07 0.162E-06 0.239E-08 0.180E+00 0.960E-04 0.401E-03 .69650E-09 0.000E+00 0.846E-01 0.000E+00 0.000E+00 0.000E+00
BIGSUB   7        0   26.37963E-01 0.000E+00 0.000E+00 0.498E+01 0.246E+01 0.664E+02 0.358E-01 0.652E-02 0.456E+00 0.785E+00 0.262E-08 0.997E-09 0.997E-09 0.123E-06 0.117E-05 0.199E-08 0.304E+00 0.443E-04 0.146E-03 .43793E-08 0.000E+00 0.643E-01 0.000E+00 0.000E+00 0.000E+00
BIGSUB   8        0   26.27046E+00 0.000E+00 0.000E+00 0.498E+01 0.221E+01 0.751E+02 0.180E-01 0.636E-02 0.166E-01 0.540E+00 0.448E-09 0.148E-07 0.269E-08 0.152E-06 0.115E-05 0.327E-08 0.514E+00 0.693E-04 0.240E-05 .54482E-08 0.000E+00 0.442E-01 0.000E+00 0.000E+00 0.000E+00
BIGSUB   9        0   26.11081E-01 0.000E+00 0.000E+00 0.497E+01 0.242E+01 0.669E+02 0.260E-01 0.865E-02 0.114E+01 0.153E+01 0.715E-08 0.997E-09 0.997E-09 0.498E-04 0.160E-05 0.199E-08 0.344E+00 0.491E-03 0.706E-03 .16518E-05 0.000E+00 0.126E+00 0.000E+00 0.000E+00 0.000E+00
BIGSUB   1        0   27.14970E+00 0.840E+01 0.000E+00 0.500E+01 0.386E+01 0.855E+02 0.292E-01 0.156E+01 0.217E+00 0.349E+01 0.468E-09 0.100E-08 0.100E-08 0.312E-04 0.283E-03 0.200E-08 0.170E+01 0.149E-03 0.741E-04 .12397E-05 0.000E+00 0.286E+00 0.000E+00 0.000E+00 0.000E+00
BIGSUB   2        0   27.20992E+00 0.840E+01 0.000E+00 0.503E+01 0.378E+01 0.102E+03 0.133E-01 0.747E+00 0.472E+00 0.313E+01 0.105E-03 0.274E-03 0.340E-04 0.456E-04 0.133E-03 0.272E-04 0.190E+01 0.206E-03 0.176E-03 .17184E-05 0.468E-02 0.253E+00 0.000E+00 0.000E+00 0.000E+00
BIGSUB   3        0   27.15360E+00 0.840E+01 0.000E+00 0.501E+01 0.354E+01 0.886E+02 0.617E-02 0.323E+00 0.206E+00 0.285E+01 0.807E-09 0.157E-07 0.280E-08 0.181E-04 0.589E-04 0.335E-08 0.231E+01 0.329E-03 0.979E-04 .38534E-06 0.000E+00 0.234E+00 0.000E+00 0.000E+00 0.000E+00
BIGSUB   4        0   27.68097E+00 0.840E+01 0.000E+00 0.500E+01 0.351E+01 0.851E+02 0.584E-02 0.305E+00 0.484E-01 0.274E+01 0.275E-04 0.429E-04 0.545E-05 0.108E-03 0.553E-04 0.453E-05 0.238E+01 0.247E-03 0.114E-04 .42060E-05 0.253E-02 0.225E+00 0.000E+00 0.000E+00 0.000E+00
BIGSUB   5        0   27.53384E+00 0.840E+01 0.000E+00 0.501E+01 0.350E+01 0.968E+02 0.381E-03 0.983E-01 0.332E+00 0.278E+01 0.162E-02 0.151E-02 0.184E-03 0.422E-04 0.645E-05 0.149E-03 0.233E+01 0.223E-03 0.162E-03 .42445E-04 0.425E+00 0.221E+00 0.000E+00 0.000E+00 0.000E+00
BIGSUB   6        0   27.23701E-01 0.840E+01 0.000E+00 0.500E+01 0.432E+01 0.790E+02 0.484E-01 0.333E+01 0.820E+00 0.470E+01 0.335E-02 0.412E-02 0.503E-03 0.194E-03 0.568E-03 0.406E-03 0.512E+00 0.108E-03 0.395E-03 .13036E-03 0.955E+00 0.362E+00 0.000E+00 0.000E+00 0.000E+00
BIGSUB   7        0   27.37963E-01 0.840E+01 0.000E+00 0.500E+01 0.420E+01 0.670E+02 0.361E-01 0.194E+01 0.459E+00 0.358E+01 0.262E-08 0.997E-09 0.997E-09 0.433E-04 0.352E-03 0.199E-08 0.116E+01 0.106E-03 0.144E-03 .17311E-05 0.000E+00 0.293E+00 0.000E+00 0.000E+00 0.000E+00
BIGSUB   8        0   27.27046E+00 0.840E+01 0.000E+00 0.500E+01 0.371E+01 0.759E+02 0.165E-01 0.972E+00 0.167E-01 0.304E+01 0.448E-09 0.933E-08 0.202E-08 0.240E-04 0.176E-03 0.276E-08 0.205E+01 0.191E-03 0.238E-05 .86050E-06 0.000E+00 0.249E+00 0.000E+00 0.000E+00 0.000E+00
BIGSUB   9        0   27.11081E-01 0.840E+01 0.000E+00 0.500E+01 0.403E+01 0.682E+02 0.235E-01 0.156E+01 0.114E+01 0.378E+01 0.715E-08 0.997E-09 0.997E-09 0.848E-02 0.290E-03 0.199E-08 0.103E+01 0.841E-03 0.699E-03 .33876E-03 0.000E+00 0.310E+00 0.000E+00 0.000E+00 0.000E+00
BIGSUB   1        0   28.14970E+00 0.282E+02 0.000E+00 0.448E+01 0.399E+01 0.880E+02 0.404E+00 0.983E+01 0.218E+00 0.182E+02 0.322E+00 0.416E+00 0.509E-01 0.193E-03 0.141E-02 0.409E-01 0.810E+01 0.702E-02 0.736E-04 .16468E-02 0.263E+02 0.128E+01 0.000E+00 0.000E+00 0.000E+00
BIGSUB   2        0   28.20992E+00 0.282E+02 0.000E+00 0.452E+01 0.391E+01 0.105E+03 0.105E+01 0.703E+01 0.473E+00 0.168E+02 0.351E+00 0.479E+00 0.586E-01 0.303E-03 0.836E-03 0.470E-01 0.926E+01 0.887E-02 0.175E-03 .22794E-02 0.303E+02 0.109E+01 0.000E+00 0.000E+00 0.000E+00
BIGSUB   3        0   28.15360E+00 0.282E+02 0.000E+00 0.449E+01 0.383E+01 0.921E+02 0.567E+00 0.633E+01 0.206E+00 0.164E+02 0.623E+00 0.643E+00 0.786E-01 0.483E-03 0.624E-03 0.635E-01 0.987E+01 0.817E-02 0.972E-04 .26394E-02 0.486E+02 0.991E+00 0.000E+00 0.000E+00 0.000E+00
BIGSUB   4        0   28.68097E+00 0.282E+02 0.000E+00 0.448E+01 0.383E+01 0.887E+02 0.131E+00 0.634E+01 0.487E-01 0.166E+02 0.568E+00 0.683E+00 0.834E-01 0.438E-03 0.544E-03 0.673E-01 0.102E+02 0.768E-02 0.114E-04 .28446E-02 0.465E+02 0.984E+00 0.000E+00 0.000E+00 0.000E+00
BIGSUB   5        0   28.53384E+00 0.282E+02 0.000E+00 0.449E+01 0.381E+01 0.101E+03 0.877E+00 0.524E+01 0.333E+00 0.157E+02 0.670E+00 0.701E+00 0.856E-01 0.317E-03 0.263E-03 0.691E-01 0.101E+02 0.763E-02 0.161E-03 .36490E-02 0.580E+02 0.887E+00 0.000E+00 0.000E+00 0.000E+00
BIGSUB   6        0   28.23701E-01 0.282E+02 0.000E+00 0.447E+01 0.418E+01 0.797E+02 0.219E+01 0.164E+02 0.822E+00 0.200E+02 0.109E+00 0.172E+00 0.210E-01 0.311E-03 0.264E-02 0.167E-01 0.278E+01 0.298E-02 0.393E-03 .31402E-02 0.224E+02 0.145E+01 0.000E+00 0.000E+00 0.000E+00
BIGSUB   7        0   28.37963E-01 0.282E+02 0.000E+00 0.447E+01 0.407E+01 0.693E+02 0.922E+00 0.123E+02 0.462E+00 0.187E+02 0.120E+00 0.345E+00 0.422E-01 0.188E-03 0.188E-02 0.334E-01 0.592E+01 0.624E-02 0.144E-03 .15314E-02 0.133E+02 0.131E+01 0.000E+00 0.000E+00 0.000E+00
BIGSUB   8        0   28.27046E+00 0.282E+02 0.000E+00 0.448E+01 0.393E+01 0.790E+02 0.445E-01 0.882E+01 0.168E-01 0.176E+02 0.429E+00 0.574E+00 0.701E-01 0.284E-03 0.108E-02 0.564E-01 0.876E+01 0.653E-02 0.238E-05 .23612E-02 0.361E+02 0.113E+01 0.000E+00 0.000E+00 0.000E+00
BIGSUB   9        0   28.11081E-01 0.282E+02 0.000E+00 0.447E+01 0.385E+01 0.702E+02 0.305E+01 0.115E+02 0.115E+01 0.177E+02 0.730E-01 0.250E+00 0.306E-01 0.103E-01 0.220E-02 0.242E-01 0.500E+01 0.906E-02 0.700E-03 .15247E-02 0.857E+01 0.126E+01 0.000E+00 0.000E+00 0.000E+00
BIGSUB   1        0   29.14970E+00 0.709E+02 0.000E+00 0.324E+01 0.310E+01 0.893E+02 0.199E+01 0.413E+02 0.220E+00 0.596E+02 0.183E+01 0.307E+01 0.375E+00 0.394E-03 0.472E-02 0.300E+00 0.180E+02 0.332E-01 0.754E-04 .40429E-01 0.285E+03 0.313E+01 0.000E+00 0.000E+00 0.000E+00
BIGSUB   2        0   29.20992E+00 0.709E+02 0.000E+00 0.327E+01 0.308E+01 0.106E+03 0.362E+01 0.366E+02 0.479E+00 0.574E+02 0.194E+01 0.339E+01 0.414E+00 0.596E-03 0.358E-02 0.331E+00 0.204E+02 0.375E-01 0.179E-03 .46722E-01 0.308E+03 0.252E+01 0.000E+00 0.000E+00 0.000E+00
BIGSUB   3        0   29.15360E+00 0.709E+02 0.000E+00 0.325E+01 0.305E+01 0.940E+02 0.183E+01 0.372E+02 0.209E+00 0.583E+02 0.340E+01 0.419E+01 0.513E+00 0.943E-03 0.300E-02 0.414E+00 0.209E+02 0.415E-01 0.988E-04 .61323E-01 0.509E+03 0.224E+01 0.000E+00 0.000E+00 0.000E+00
BIGSUB   4        0   29.68097E+00 0.709E+02 0.000E+00 0.324E+01 0.305E+01 0.907E+02 0.907E+00 0.375E+02 0.492E-01 0.590E+02 0.309E+01 0.440E+01 0.538E+00 0.766E-03 0.257E-02 0.434E+00 0.215E+02 0.411E-01 0.117E-04 .64725E-01 0.484E+03 0.220E+01 0.000E+00 0.000E+00 0.000E+00
BIGSUB   5        0   29.53384E+00 0.709E+02 0.000E+00 0.325E+01 0.305E+01 0.103E+03 0.274E+01 0.348E+02 0.336E+00 0.569E+02 0.355E+01 0.459E+01 0.561E+00 0.604E-03 0.180E-02 0.452E+00 0.217E+02 0.411E-01 0.163E-03 .67804E-01 0.542E+03 0.189E+01 0.000E+00 0.000E+00 0.000E+00
BIGSUB   6        0   29.23701E-01 0.709E+02 0.000E+00 0.324E+01 0.315E+01 0.805E+02 0.553E+01 0.518E+02 0.831E+00 0.591E+02 0.400E+00 0.116E+01 0.142E+00 0.401E-03 0.791E-02 0.111E+00 0.637E+01 0.107E-01 0.399E-03 .19807E-01 0.840E+02 0.375E+01 0.000E+00 0.000E+00 0.000E+00
BIGSUB   7        0   29.37963E-01 0.709E+02 0.000E+00 0.324E+01 0.312E+01 0.703E+02 0.328E+01 0.469E+02 0.469E+00 0.601E+02 0.646E+00 0.225E+01 0.276E+00 0.322E-03 0.616E-02 0.218E+00 0.127E+02 0.238E-01 0.146E-03 .34426E-01 0.135E+03 0.328E+01 0.000E+00 0.000E+00 0.000E+00
BIGSUB   8        0   29.27046E+00 0.709E+02 0.000E+00 0.324E+01 0.308E+01 0.809E+02 0.671E+00 0.416E+02 0.170E-01 0.601E+02 0.234E+01 0.371E+01 0.453E+00 0.550E-03 0.392E-02 0.365E+00 0.185E+02 0.353E-01 0.243E-05 .54435E-01 0.378E+03 0.270E+01 0.000E+00 0.000E+00 0.000E+00
BIGSUB   9        0   29.11081E-01 0.709E+02 0.000E+00 0.324E+01 0.298E+01 0.713E+02 0.616E+01 0.462E+02 0.116E+01 0.580E+02 0.389E+00 0.160E+01 0.196E+00 0.108E-01 0.854E-02 0.155E+00 0.105E+02 0.255E-01 0.716E-03 .25528E-01 0.863E+02 0.330E+01 0.000E+00 0.000E+00 0.000E+00
BIGSUB   1        0   30.14970E+00 0.660E+01 0.000E+00 0.158E+01 0.157E+01 0.907E+02 0.954E-01 0.111E+01 0.222E+00 0.917E+01 0.468E-09 0.100E-08 0.100E-08 0.196E-04 0.196E-03 0.200E-08 0.782E+01 0.124E-01 0.766E-04 .78433E-06 0.000E+00 0.761E+00 0.000E+00 0.000E+00 0.000E+00
BIGSUB   2        0   30.20992E+00 0.660E+01 0.000E+00 0.158E+01 0.157E+01 0.107E+03 0.205E+00 0.534E+00 0.483E+00 0.995E+01 0.848E-09 0.177E-03 0.222E-04 0.261E-04 0.933E-04 0.180E-04 0.891E+01 0.144E-01 0.182E-03 .99246E-06 0.839E-09 0.816E+00 0.000E+00 0.000E+00 0.000E+00
BIGSUB   3        0   30.15360E+00 0.660E+01 0.000E+00 0.158E+01 0.156E+01 0.954E+02 0.105E+00 0.232E+00 0.210E+00 0.987E+01 0.807E-09 0.227E-07 0.366E-08 0.709E-05 0.415E-04 0.413E-08 0.942E+01 0.157E-01 0.998E-04 .24895E-06 0.000E+00 0.819E+00 0.000E+00 0.000E+00 0.000E+00
BIGSUB   4        0   30.68097E+00 0.660E+01 0.000E+00 0.158E+01 0.156E+01 0.921E+02 0.378E-01 0.231E+00 0.497E-01 0.988E+01 0.222E-09 0.839E-04 0.106E-04 0.658E-04 0.412E-04 0.862E-05 0.960E+01 0.155E-01 0.120E-04 .28259E-05 0.217E-09 0.820E+00 0.000E+00 0.000E+00 0.000E+00
BIGSUB   5        0   30.53384E+00 0.660E+01 0.000E+00 0.158E+01 0.157E+01 0.104E+03 0.154E+00 0.654E-01 0.339E+00 0.103E+02 0.211E-09 0.269E-02 0.328E-03 0.193E-04 0.464E-05 0.266E-03 0.987E+01 0.158E-01 0.165E-03 .27294E-04 0.966E-08 0.854E+00 0.000E+00 0.000E+00 0.000E+00
BIGSUB   6        0   30.23701E-01 0.660E+01 0.000E+00 0.158E+01 0.157E+01 0.818E+02 0.454E+00 0.236E+01 0.838E+00 0.666E+01 0.378E-08 0.840E-02 0.103E-02 0.990E-04 0.395E-03 0.829E-03 0.343E+01 0.563E-02 0.404E-03 .98362E-04 0.598E-07 0.553E+00 0.000E+00 0.000E+00 0.000E+00
BIGSUB   7        0   30.37963E-01 0.660E+01 0.000E+00 0.158E+01 0.157E+01 0.717E+02 0.244E+00 0.152E+01 0.475E+00 0.779E+01 0.262E-08 0.331E-03 0.405E-04 0.246E-04 0.270E-03 0.305E-04 0.578E+01 0.966E-02 0.148E-03 .22847E-05 0.000E+00 0.647E+00 0.000E+00 0.000E+00 0.000E+00
BIGSUB   8        0   30.27046E+00 0.660E+01 0.000E+00 0.158E+01 0.157E+01 0.823E+02 0.252E-01 0.815E+00 0.172E-01 0.907E+01 0.448E-09 0.282E-08 0.122E-08 0.125E-04 0.145E-03 0.216E-08 0.823E+01 0.131E-01 0.248E-05 .49059E-06 0.000E+00 0.753E+00 0.000E+00 0.000E+00 0.000E+00
BIGSUB   9        0   30.11081E-01 0.660E+01 0.000E+00 0.158E+01 0.150E+01 0.727E+02 0.679E+00 0.130E+01 0.117E+01 0.758E+01 0.715E-08 0.121E-03 0.148E-04 0.439E-02 0.234E-03 0.115E-04 0.508E+01 0.124E-01 0.727E-03 .17523E-03 0.000E+00 0.629E+00 0.000E+00 0.000E+00 0.000E+00
BIGSUB   1        0   31.14970E+00 0.381E+02 0.000E+00 0.112E+01 0.112E+01 0.916E+02 0.169E+01 0.167E+02 0.226E+00 0.312E+02 0.917E+00 0.106E+01 0.130E+00 0.130E-03 0.209E-02 0.104E+00 0.143E+02 0.339E-01 0.791E-04 .56999E-02 0.846E+02 0.203E+01 0.000E+00 0.000E+00 0.000E+00
BIGSUB   2        0   31.20992E+00 0.381E+02 0.000E+00 0.112E+01 0.111E+01 0.108E+03 0.293E+01 0.133E+02 0.490E+00 0.300E+02 0.984E+00 0.120E+01 0.147E+00 0.225E-03 0.136E-02 0.118E+00 0.162E+02 0.379E-01 0.187E-03 .71572E-02 0.944E+02 0.178E+01 0.000E+00 0.000E+00 0.000E+00
BIGSUB   3        0   31.15360E+00 0.381E+02 0.000E+00 0.112E+01 0.110E+01 0.960E+02 0.175E+01 0.131E+02 0.213E+00 0.307E+02 0.175E+01 0.153E+01 0.187E+00 0.391E-03 0.109E-02 0.151E+00 0.173E+02 0.468E-01 0.102E-03 .89143E-02 0.155E+03 0.168E+01 0.000E+00 0.000E+00 0.000E+00
BIGSUB   4        0   31.68097E+00 0.381E+02 0.000E+00 0.112E+01 0.111E+01 0.926E+02 0.119E+01 0.133E+02 0.503E-01 0.310E+02 0.159E+01 0.164E+01 0.200E+00 0.310E-03 0.944E-03 0.161E+00 0.177E+02 0.466E-01 0.124E-04 .97200E-02 0.149E+03 0.167E+01 0.000E+00 0.000E+00 0.000E+00
BIGSUB   5        0   31.53384E+00 0.381E+02 0.000E+00 0.112E+01 0.111E+01 0.104E+03 0.243E+01 0.117E+02 0.343E+00 0.300E+02 0.185E+01 0.166E+01 0.203E+00 0.194E-03 0.547E-03 0.164E+00 0.179E+02 0.472E-01 0.169E-03 .10544E-01 0.173E+03 0.155E+01 0.000E+00 0.000E+00 0.000E+00
BIGSUB   6        0   31.23701E-01 0.381E+02 0.000E+00 0.112E+01 0.112E+01 0.832E+02 0.423E+01 0.242E+02 0.848E+00 0.305E+02 0.244E+00 0.410E+00 0.501E-01 0.170E-03 0.374E-02 0.395E-01 0.542E+01 0.121E-01 0.413E-03 .51739E-02 0.436E+02 0.214E+01 0.000E+00 0.000E+00 0.000E+00
BIGSUB   7        0   31.37963E-01 0.381E+02 0.000E+00 0.112E+01 0.112E+01 0.730E+02 0.261E+01 0.201E+02 0.484E+00 0.309E+02 0.328E+00 0.864E+00 0.106E+00 0.112E-03 0.281E-02 0.837E-01 0.103E+02 0.198E-01 0.152E-03 .54031E-02 0.411E+02 0.202E+01 0.000E+00 0.000E+00 0.000E+00
BIGSUB   8        0   31.27046E+00 0.381E+02 0.000E+00 0.112E+01 0.111E+01 0.832E+02 0.927E+00 0.162E+02 0.175E-01 0.315E+02 0.121E+01 0.139E+01 0.170E+00 0.193E-03 0.168E-02 0.137E+00 0.152E+02 0.399E-01 0.256E-05 .82186E-02 0.116E+03 0.185E+01 0.000E+00 0.000E+00 0.000E+00
BIGSUB   9        0   31.11081E-01 0.381E+02 0.000E+00 0.113E+01 0.107E+01 0.740E+02 0.508E+01 0.193E+02 0.118E+01 0.294E+02 0.199E+00 0.625E+00 0.766E-01 0.675E-02 0.346E-02 0.604E-01 0.883E+01 0.216E-01 0.748E-03 .43762E-02 0.266E+02 0.193E+01 0.000E+00 0.000E+00 0.000E+00
BIGSUB   1        0   32.14970E+00 0.250E+01 0.000E+00 0.315E+01 0.304E+01 0.898E+02 0.827E-01 0.205E+00 0.229E+00 0.597E+01 0.468E-09 0.100E-08 0.100E-08 0.446E-05 0.362E-04 0.200E-08 0.553E+01 0.127E-01 0.810E-04 .17740E-06 0.000E+00 0.490E+00 0.000E+00 0.000E+00 0.000E+00
BIGSUB   2        0   32.20992E+00 0.250E+01 0.000E+00 0.317E+01 0.302E+01 0.106E+03 0.125E+00 0.101E+00 0.496E+00 0.692E+01 0.848E-09 0.100E-08 0.989E-09 0.576E-05 0.177E-04 0.198E-08 0.631E+01 0.142E-01 0.191E-03 .22909E-06 0.000E+00 0.562E+00 0.000E+00 0.000E+00 0.000E+00
BIGSUB   3        0   32.15360E+00 0.250E+01 0.000E+00 0.316E+01 0.299E+01 0.941E+02 0.758E-01 0.455E-01 0.215E+00 0.713E+01 0.807E-09 0.675E-08 0.168E-08 0.148E-05 0.836E-05 0.251E-08 0.686E+01 0.177E-01 0.103E-03 .57324E-07 0.000E+00 0.586E+00 0.000E+00 0.000E+00 0.000E+00
BIGSUB   4        0   32.68097E+00 0.250E+01 0.000E+00 0.315E+01 0.300E+01 0.908E+02 0.523E-01 0.479E-01 0.509E-01 0.706E+01 0.222E-09 0.120E-04 0.147E-05 0.154E-04 0.861E-05 0.110E-05 0.695E+01 0.175E-01 0.128E-04 .66579E-06 0.000E+00 0.579E+00 0.000E+00 0.000E+00 0.000E+00
BIGSUB   5        0   32.53384E+00 0.250E+01 0.000E+00 0.316E+01 0.300E+01 0.103E+03 0.103E+00 0.551E-02 0.347E+00 0.759E+01 0.211E-09 0.416E-04 0.508E-05 0.779E-06 0.817E-06 0.408E-05 0.722E+01 0.182E-01 0.171E-03 .12367E-06 0.332E-09 0.623E+00 0.000E+00 0.000E+00 0.000E+00
BIGSUB   6        0   32.23701E-01 0.250E+01 0.000E+00 0.315E+01 0.308E+01 0.816E+02 0.257E+00 0.413E+00 0.857E+00 0.399E+01 0.378E-08 0.106E-03 0.129E-04 0.114E-04 0.723E-04 0.104E-04 0.268E+01 0.605E-02 0.419E-03 .37082E-06 0.490E-08 0.327E+00 0.000E+00 0.000E+00 0.000E+00
BIGSUB   7        0   32.37963E-01 0.250E+01 0.000E+00 0.315E+01 0.305E+01 0.714E+02 0.145E+00 0.322E+00 0.491E+00 0.500E+01 0.262E-08 0.107E-03 0.131E-04 0.538E-05 0.576E-04 0.989E-05 0.416E+01 0.762E-02 0.154E-03 .24893E-06 0.000E+00 0.410E+00 0.000E+00 0.000E+00 0.000E+00
BIGSUB   8        0   32.27046E+00 0.250E+01 0.000E+00 0.315E+01 0.302E+01 0.814E+02 0.497E-01 0.185E+00 0.177E-01 0.615E+01 0.448E-09 0.166E-08 0.108E-08 0.271E-05 0.330E-04 0.206E-08 0.595E+01 0.149E-01 0.263E-05 .10712E-06 0.000E+00 0.505E+00 0.000E+00 0.000E+00 0.000E+00
[...]
BIGSUB   1        0  359.14970E+00 0.000E+00 0.000E+00 0.684E+01 0.262E+01 0.763E+02 0.440E-02 0.100E-05 0.117E+00 0.945E+00 0.468E-09 0.100E-08 0.100E-08 0.100E-08 0.100E-08 0.200E-08 0.822E+00 0.166E-02 0.241E-04 .14253E-16 0.000E+00 0.775E-01 0.000E+00 0.000E+00 0.000E+00
BIGSUB   2        0  359.20992E+00 0.000E+00 0.000E+00 0.686E+01 0.245E+01 0.957E+02 0.189E-02 0.869E-04 0.267E+00 0.123E+01 0.848E-09 0.989E-09 0.989E-09 0.116E-08 0.149E-07 0.198E-08 0.947E+00 0.195E-02 0.798E-04 .66189E-11 0.000E+00 0.994E-01 0.000E+00 0.000E+00 0.000E+00
BIGSUB   3        0  359.15360E+00 0.000E+00 0.000E+00 0.683E+01 0.227E+01 0.848E+02 0.891E-03 0.350E-02 0.126E+00 0.120E+01 0.762E-08 0.564E-05 0.690E-06 0.492E-07 0.842E-06 0.493E-06 0.106E+01 0.224E-02 0.651E-04 .71569E-07 0.000E+00 0.980E-01 0.000E+00 0.000E+00 0.000E+00
BIGSUB   4        0  359.68097E+00 0.000E+00 0.000E+00 0.683E+01 0.225E+01 0.818E+02 0.830E-03 0.120E-02 0.264E-01 0.105E+01 0.222E-09 0.352E-05 0.432E-06 0.107E-07 0.241E-06 0.310E-06 0.102E+01 0.223E-02 0.652E-05 .83975E-08 0.000E+00 0.857E-01 0.000E+00 0.000E+00 0.000E+00
BIGSUB   5        0  359.53384E+00 0.000E+00 0.000E+00 0.683E+01 0.223E+01 0.943E+02 0.427E-04 0.101E-02 0.208E+00 0.142E+01 0.217E-08 0.168E-05 0.206E-06 0.151E-07 0.243E-06 0.149E-06 0.121E+01 0.246E-02 0.970E-04 .20597E-07 0.000E+00 0.117E+00 0.000E+00 0.000E+00 0.000E+00
BIGSUB   6        0  359.23701E-01 0.000E+00 0.000E+00 0.684E+01 0.228E+01 0.642E+02 0.558E-02 0.263E-04 0.509E+00 0.135E+01 0.378E-08 0.100E-08 0.100E-08 0.105E-08 0.513E-08 0.200E-08 0.820E+00 0.144E-02 0.233E-03 .15548E-11 0.000E+00 0.111E+00 0.000E+00 0.000E+00 0.000E+00
BIGSUB   7        0  359.37963E-01 0.000E+00 0.000E+00 0.684E+01 0.272E+01 0.574E+02 0.876E-02 0.275E-01 0.174E+00 0.907E+00 0.262E-08 0.604E-05 0.739E-06 0.700E-07 0.460E-05 0.529E-06 0.694E+00 0.148E-02 0.809E-04 .32017E-08 0.000E+00 0.744E-01 0.000E+00 0.000E+00 0.000E+00
BIGSUB   8        0  359.27046E+00 0.000E+00 0.000E+00 0.684E+01 0.244E+01 0.705E+02 0.430E-02 0.221E-02 0.496E-02 0.855E+00 0.432E-08 0.320E-05 0.392E-06 0.288E-07 0.515E-06 0.281E-06 0.847E+00 0.183E-02 0.103E-05 .40653E-07 0.000E+00 0.701E-01 0.000E+00 0.000E+00 0.000E+00
BIGSUB   9        0  359.11081E-01 0.000E+00 0.000E+00 0.684E+01 0.246E+01 0.609E+02 0.100E-01 0.430E-04 0.658E+00 0.161E+01 0.715E-08 0.143E-08 0.103E-08 0.414E-07 0.874E-08 0.201E-08 0.925E+00 0.359E-02 0.200E-03 .55960E-09 0.000E+00 0.132E+00 0.000E+00 0.000E+00 0.000E+00
BIGSUB   1        0  360.14970E+00 0.239E+02 0.000E+00 0.383E+01 0.351E+01 0.838E+02 0.122E+00 0.465E+01 0.121E+00 0.104E+02 0.119E+00 0.955E-01 0.117E-01 0.219E-03 0.530E-03 0.908E-02 0.561E+01 0.226E-02 0.257E-04 .31572E-03 0.980E+01 0.734E+00 0.000E+00 0.000E+00 0.000E+00
BIGSUB   2        0  360.20992E+00 0.239E+02 0.000E+00 0.386E+01 0.345E+01 0.103E+03 0.387E+00 0.356E+01 0.275E+00 0.102E+02 0.132E+00 0.114E+00 0.141E-01 0.497E-03 0.309E-03 0.110E-01 0.637E+01 0.314E-02 0.842E-04 .53399E-03 0.118E+02 0.668E+00 0.000E+00 0.000E+00 0.000E+00
BIGSUB   3        0  360.15360E+00 0.239E+02 0.000E+00 0.384E+01 0.340E+01 0.913E+02 0.261E+00 0.356E+01 0.130E+00 0.107E+02 0.235E+00 0.143E+00 0.176E-01 0.549E-03 0.206E-03 0.137E-01 0.701E+01 0.260E-02 0.679E-04 .54811E-03 0.186E+02 0.655E+00 0.000E+00 0.000E+00 0.000E+00
BIGSUB   4        0  360.68097E+00 0.239E+02 0.000E+00 0.383E+01 0.341E+01 0.882E+02 0.472E-01 0.358E+01 0.270E-01 0.108E+02 0.213E+00 0.163E+00 0.200E-01 0.610E-03 0.186E-03 0.156E-01 0.717E+01 0.227E-02 0.682E-05 .60848E-03 0.177E+02 0.656E+00 0.000E+00 0.000E+00 0.000E+00
BIGSUB   5        0  360.53384E+00 0.239E+02 0.000E+00 0.384E+01 0.338E+01 0.101E+03 0.413E+00 0.319E+01 0.213E+00 0.107E+02 0.273E+00 0.140E+00 0.172E-01 0.524E-03 0.625E-04 0.134E-01 0.724E+01 0.254E-02 0.101E-03 .46766E-03 0.268E+02 0.632E+00 0.000E+00 0.000E+00 0.000E+00
BIGSUB   6        0  360.23701E-01 0.239E+02 0.000E+00 0.383E+01 0.360E+01 0.742E+02 0.101E+01 0.614E+01 0.523E+00 0.882E+01 0.887E-01 0.262E-01 0.320E-02 0.887E-03 0.718E-03 0.246E-02 0.214E+01 0.180E-02 0.244E-03 .18433E-03 0.207E+02 0.581E+00 0.000E+00 0.000E+00 0.000E+00
BIGSUB   7        0  360.37963E-01 0.239E+02 0.000E+00 0.383E+01 0.357E+01 0.649E+02 0.385E+00 0.649E+01 0.178E+00 0.108E+02 0.484E-01 0.115E+00 0.141E-01 0.212E-03 0.857E-03 0.107E-01 0.410E+01 0.227E-02 0.839E-04 .42989E-03 0.536E+01 0.762E+00 0.000E+00 0.000E+00 0.000E+00
BIGSUB   8        0  360.27046E+00 0.239E+02 0.000E+00 0.383E+01 0.347E+01 0.771E+02 0.121E-01 0.487E+01 0.537E-02 0.110E+02 0.161E+00 0.145E+00 0.178E-01 0.310E-03 0.457E-03 0.138E-01 0.616E+01 0.182E-02 0.109E-05 .50604E-03 0.136E+02 0.716E+00 0.000E+00 0.000E+00 0.000E+00
BIGSUB   9        0  360.11081E-01 0.239E+02 0.000E+00 0.383E+01 0.329E+01 0.675E+02 0.157E+01 0.694E+01 0.671E+00 0.113E+02 0.297E-01 0.882E-01 0.108E-01 0.205E-01 0.138E-02 0.820E-02 0.369E+01 0.541E-02 0.214E-03 .10156E-02 0.350E+01 0.826E+00 0.000E+00 0.000E+00 0.000E+00
BIGSUB   1        0  361.14970E+00 0.460E+01 0.000E+00 0.289E+01 0.282E+01 0.839E+02 0.826E-02 0.416E+00 0.125E+00 0.327E+01 0.468E-09 0.100E-08 0.100E-08 0.144E-04 0.683E-04 0.200E-08 0.272E+01 0.871E-03 0.270E-04 .57462E-06 0.000E+00 0.271E+00 0.000E+00 0.000E+00 0.000E+00
BIGSUB   2        0  361.20992E+00 0.460E+01 0.000E+00 0.291E+01 0.281E+01 0.103E+03 0.109E-01 0.207E+00 0.282E+00 0.361E+01 0.848E-09 0.115E-08 0.999E-09 0.212E-04 0.336E-04 0.198E-08 0.311E+01 0.128E-02 0.877E-04 .84542E-06 0.000E+00 0.295E+00 0.000E+00 0.000E+00 0.000E+00
BIGSUB   3        0  361.15360E+00 0.460E+01 0.000E+00 0.289E+01 0.278E+01 0.914E+02 0.241E-01 0.857E-01 0.132E+00 0.373E+01 0.107E-08 0.205E-05 0.251E-06 0.308E-05 0.142E-04 0.181E-06 0.351E+01 0.118E-02 0.700E-04 .13288E-06 0.000E+00 0.309E+00 0.000E+00 0.000E+00 0.000E+00
BIGSUB   4        0  361.68097E+00 0.460E+01 0.000E+00 0.289E+01 0.279E+01 0.883E+02 0.708E-02 0.841E-01 0.276E-01 0.368E+01 0.222E-09 0.470E-06 0.576E-07 0.573E-04 0.139E-04 0.426E-07 0.357E+01 0.966E-03 0.706E-05 .22856E-05 0.000E+00 0.305E+00 0.000E+00 0.000E+00 0.000E+00
BIGSUB   5        0  361.53384E+00 0.460E+01 0.000E+00 0.289E+01 0.278E+01 0.101E+03 0.251E-01 0.231E-01 0.218E+00 0.390E+01 0.287E-09 0.809E-05 0.996E-06 0.295E-04 0.970E-06 0.838E-06 0.365E+01 0.112E-02 0.105E-03 .39814E-06 0.396E-08 0.323E+00 0.000E+00 0.000E+00 0.000E+00
BIGSUB   6        0  361.23701E-01 0.460E+01 0.000E+00 0.289E+01 0.284E+01 0.743E+02 0.783E-01 0.105E+01 0.534E+00 0.283E+01 0.378E-08 0.780E-04 0.955E-05 0.134E-03 0.164E-03 0.804E-05 0.122E+01 0.977E-03 0.252E-03 .34060E-05 0.634E-07 0.235E+00 0.000E+00 0.000E+00 0.000E+00
BIGSUB   7        0  361.37963E-01 0.460E+01 0.000E+00 0.289E+01 0.285E+01 0.652E+02 0.431E-01 0.534E+00 0.182E+00 0.276E+01 0.262E-08 0.135E-04 0.166E-05 0.173E-04 0.878E-04 0.119E-05 0.203E+01 0.944E-03 0.863E-04 .68046E-06 0.000E+00 0.229E+00 0.000E+00 0.000E+00 0.000E+00
BIGSUB   8        0  361.27046E+00 0.460E+01 0.000E+00 0.289E+01 0.280E+01 0.772E+02 0.670E-02 0.277E+00 0.575E-02 0.334E+01 0.597E-09 0.116E-05 0.143E-06 0.880E-05 0.455E-04 0.103E-06 0.305E+01 0.731E-03 0.113E-05 .35702E-06 0.000E+00 0.276E+00 0.000E+00 0.000E+00 0.000E+00
BIGSUB   9        0  361.11081E-01 0.460E+01 0.000E+00 0.289E+01 0.262E+01 0.680E+02 0.233E+00 0.478E+00 0.690E+00 0.317E+01 0.715E-08 0.828E-05 0.101E-05 0.467E-02 0.897E-04 0.764E-06 0.198E+01 0.349E-02 0.227E-03 .18642E-03 0.000E+00 0.263E+00 0.000E+00 0.000E+00 0.000E+00
BIGSUB   1        0  362.14970E+00 0.147E+02 0.000E+00 0.388E+01 0.356E+01 0.844E+02 0.361E+00 0.313E+01 0.129E+00 0.892E+01 0.185E-01 0.154E-01 0.189E-02 0.512E-04 0.468E-03 0.146E-02 0.565E+01 0.630E-02 0.284E-04 .50517E-05 0.426E+00 0.700E+00 0.000E+00 0.000E+00 0.000E+00
BIGSUB   2        0  362.20992E+00 0.147E+02 0.000E+00 0.391E+01 0.349E+01 0.103E+03 0.806E+00 0.183E+01 0.289E+00 0.862E+01 0.215E-01 0.199E-01 0.246E-02 0.115E-03 0.239E-03 0.193E-02 0.649E+01 0.807E-02 0.914E-04 .16077E-04 0.650E+00 0.656E+00 0.000E+00 0.000E+00 0.000E+00
BIGSUB   3        0  362.15360E+00 0.147E+02 0.000E+00 0.389E+01 0.345E+01 0.920E+02 0.340E+00 0.120E+01 0.135E+00 0.850E+01 0.368E-01 0.245E-01 0.302E-02 0.938E-04 0.118E-03 0.237E-02 0.716E+01 0.802E-02 0.722E-04 .11007E-04 0.826E+00 0.644E+00 0.000E+00 0.000E+00 0.000E+00
BIGSUB   4        0  362.68097E+00 0.147E+02 0.000E+00 0.389E+01 0.345E+01 0.889E+02 0.104E+00 0.118E+01 0.282E-01 0.855E+01 0.336E-01 0.277E-01 0.341E-02 0.166E-03 0.112E-03 0.266E-02 0.734E+01 0.775E-02 0.735E-05 .15195E-04 0.817E+00 0.646E+00 0.000E+00 0.000E+00 0.000E+00
BIGSUB   5        0  362.53384E+00 0.147E+02 0.000E+00 0.389E+01 0.343E+01 0.101E+03 0.525E+00 0.794E+00 0.223E+00 0.837E+01 0.514E-01 0.229E-01 0.281E-02 0.128E-03 0.163E-04 0.219E-02 0.734E+01 0.765E-02 0.109E-03 .95013E-05 0.386E+01 0.621E+00 0.000E+00 0.000E+00 0.000E+00
BIGSUB   6        0  362.23701E-01 0.147E+02 0.000E+00 0.388E+01 0.368E+01 0.745E+02 0.134E+01 0.668E+01 0.546E+00 0.935E+01 0.323E-01 0.430E-02 0.527E-03 0.314E-03 0.976E-03 0.412E-03 0.210E+01 0.275E-02 0.261E-03 .38236E-04 0.767E+01 0.696E+00 0.000E+00 0.000E+00 0.000E+00
BIGSUB   7        0  362.37963E-01 0.147E+02 0.000E+00 0.388E+01 0.361E+01 0.656E+02 0.851E+00 0.410E+01 0.185E+00 0.870E+01 0.804E-02 0.200E-01 0.245E-02 0.528E-04 0.630E-03 0.187E-02 0.440E+01 0.684E-02 0.887E-04 .63277E-05 0.247E+00 0.679E+00 0.000E+00 0.000E+00 0.000E+00
BIGSUB   8        0  362.27046E+00 0.147E+02 0.000E+00 0.389E+01 0.352E+01 0.779E+02 0.406E-01 0.238E+01 0.613E-02 0.870E+01 0.251E-01 0.243E-01 0.299E-02 0.615E-04 0.322E-03 0.232E-02 0.631E+01 0.661E-02 0.118E-05 .78431E-05 0.590E+00 0.667E+00 0.000E+00 0.000E+00 0.000E+00
BIGSUB   9        0  362.11081E-01 0.147E+02 0.000E+00 0.388E+01 0.333E+01 0.683E+02 0.220E+01 0.370E+01 0.709E+00 0.835E+01 0.494E-02 0.145E-01 0.178E-02 0.833E-02 0.721E-03 0.135E-02 0.392E+01 0.943E-02 0.240E-03 .31502E-03 0.153E+00 0.659E+00 0.000E+00 0.000E+00 0.000E+00
BIGSUB   1        0  363.14970E+00 0.840E+01 0.000E+00 0.422E+01 0.380E+01 0.842E+02 0.121E+00 0.126E+01 0.132E+00 0.559E+01 0.468E-09 0.175E-04 0.214E-05 0.170E-04 0.208E-03 0.163E-05 0.419E+01 0.418E-02 0.296E-04 .67555E-06 0.867E-09 0.457E+00 0.000E+00 0.000E+00 0.000E+00
BIGSUB   2        0  363.20992E+00 0.840E+01 0.000E+00 0.426E+01 0.373E+01 0.103E+03 0.292E+00 0.623E+00 0.296E+00 0.577E+01 0.848E-09 0.230E-03 0.295E-04 0.316E-04 0.101E-03 0.248E-04 0.484E+01 0.553E-02 0.946E-04 .10328E-05 0.461E-08 0.466E+00 0.000E+00 0.000E+00 0.000E+00
BIGSUB   3        0  363.15360E+00 0.840E+01 0.000E+00 0.424E+01 0.367E+01 0.919E+02 0.139E+00 0.265E+00 0.138E+00 0.581E+01 0.807E-09 0.102E-03 0.128E-04 0.575E-05 0.433E-04 0.105E-04 0.540E+01 0.545E-02 0.740E-04 .14826E-06 0.793E-09 0.475E+00 0.000E+00 0.000E+00 0.000E+00
BIGSUB   4        0  363.68097E+00 0.840E+01 0.000E+00 0.423E+01 0.367E+01 0.888E+02 0.463E-01 0.254E+00 0.288E-01 0.581E+01 0.222E-09 0.959E-04 0.126E-04 0.726E-04 0.419E-04 0.111E-04 0.552E+01 0.523E-02 0.761E-05 .28103E-05 0.138E-08 0.475E+00 0.000E+00 0.000E+00 0.000E+00
BIGSUB   5        0  363.53384E+00 0.840E+01 0.000E+00 0.423E+01 0.364E+01 0.101E+03 0.199E+00 0.947E-01 0.227E+00 0.588E+01 0.211E-09 0.141E-04 0.174E-05 0.432E-04 0.255E-05 0.157E-05 0.555E+01 0.523E-02 0.112E-03 .10347E-05 0.816E-08 0.480E+00 0.000E+00 0.000E+00 0.000E+00
BIGSUB   6        0  363.23701E-01 0.840E+01 0.000E+00 0.422E+01 0.396E+01 0.741E+02 0.515E+00 0.301E+01 0.557E+00 0.528E+01 0.378E-08 0.211E-03 0.259E-04 0.178E-03 0.454E-03 0.218E-04 0.169E+01 0.225E-02 0.268E-03 .89007E-05 0.998E-07 0.431E+00 0.000E+00 0.000E+00 0.000E+00
BIGSUB   7        0  363.37963E-01 0.840E+01 0.000E+00 0.422E+01 0.386E+01 0.655E+02 0.344E+00 0.168E+01 0.189E+00 0.519E+01 0.262E-08 0.497E-07 0.693E-08 0.205E-04 0.277E-03 0.624E-08 0.332E+01 0.484E-02 0.907E-04 .81861E-06 0.000E+00 0.424E+00 0.000E+00 0.000E+00 0.000E+00
BIGSUB   8        0  363.27046E+00 0.840E+01 0.000E+00 0.422E+01 0.375E+01 0.778E+02 0.218E-01 0.847E+00 0.649E-02 0.560E+01 0.448E-09 0.476E-04 0.595E-05 0.111E-04 0.140E-03 0.469E-05 0.474E+01 0.441E-02 0.123E-05 .41750E-06 0.485E-09 0.457E+00 0.000E+00 0.000E+00 0.000E+00
BIGSUB   9        0  363.11081E-01 0.840E+01 0.000E+00 0.422E+01 0.356E+01 0.683E+02 0.982E+00 0.146E+01 0.726E+00 0.525E+01 0.715E-08 0.142E-05 0.175E-06 0.558E-02 0.276E-03 0.133E-06 0.304E+01 0.737E-02 0.252E-03 .22293E-03 0.000E+00 0.429E+00 0.000E+00 0.000E+00 0.000E+00
BIGSUB   1        0  364.14970E+00 0.300E+00 0.000E+00 0.570E+01 0.380E+01 0.807E+02 0.793E-02 0.167E-04 0.135E+00 0.158E+01 0.468E-09 0.100E-08 0.100E-08 0.100E-08 0.339E-08 0.200E-08 0.144E+01 0.144E-02 0.305E-04 .48203E-13 0.000E+00 0.129E+00 0.000E+00 0.000E+00 0.000E+00
BIGSUB   2        0  364.20992E+00 0.300E+00 0.000E+00 0.575E+01 0.353E+01 0.100E+03 0.373E-02 0.821E-03 0.302E+00 0.198E+01 0.848E-09 0.989E-09 0.989E-09 0.112E-07 0.135E-06 0.198E-08 0.167E+01 0.191E-02 0.970E-04 .40399E-09 0.000E+00 0.160E+00 0.000E+00 0.000E+00 0.000E+00
BIGSUB   3        0  364.15360E+00 0.300E+00 0.000E+00 0.572E+01 0.329E+01 0.889E+02 0.161E-02 0.456E-03 0.140E+00 0.204E+01 0.807E-09 0.450E-06 0.559E-07 0.173E-07 0.110E-06 0.411E-07 0.189E+01 0.192E-02 0.752E-04 .32329E-09 0.000E+00 0.166E+00 0.000E+00 0.000E+00 0.000E+00
BIGSUB   4        0  364.68097E+00 0.300E+00 0.000E+00 0.571E+01 0.327E+01 0.858E+02 0.155E-02 0.117E-02 0.292E-01 0.195E+01 0.222E-09 0.230E-07 0.369E-08 0.180E-07 0.197E-06 0.392E-08 0.192E+01 0.185E-02 0.780E-05 .54801E-09 0.000E+00 0.159E+00 0.000E+00 0.000E+00 0.000E+00
BIGSUB   5        0  364.53384E+00 0.300E+00 0.000E+00 0.572E+01 0.319E+01 0.983E+02 0.921E-04 0.172E-03 0.231E+00 0.222E+01 0.211E-09 0.217E-06 0.274E-07 0.193E-07 0.351E-07 0.213E-07 0.198E+01 0.190E-02 0.114E-03 .69409E-09 0.000E+00 0.181E+00 0.000E+00 0.000E+00 0.000E+00
BIGSUB   6        0  364.23701E-01 0.300E+00 0.000E+00 0.570E+01 0.442E+01 0.700E+02 0.174E-01 0.114E-02 0.566E+00 0.136E+01 0.378E-08 0.118E-08 0.100E-08 0.158E-07 0.189E-06 0.200E-08 0.767E+00 0.105E-02 0.273E-03 .53413E-09 0.000E+00 0.111E+00 0.000E+00 0.000E+00 0.000E+00
BIGSUB   7        0  364.37963E-01 0.300E+00 0.000E+00 0.570E+01 0.401E+01 0.617E+02 0.127E-01 0.136E-01 0.200E+00 0.141E+01 0.262E-08 0.550E-08 0.154E-08 0.148E-06 0.226E-05 0.237E-08 0.118E+01 0.172E-02 0.925E-04 .55342E-08 0.000E+00 0.115E+00 0.000E+00 0.000E+00 0.000E+00
BIGSUB   8        0  364.27046E+00 0.300E+00 0.000E+00 0.571E+01 0.357E+01 0.745E+02 0.627E-02 0.840E-02 0.682E-02 0.165E+01 0.448E-09 0.256E-06 0.322E-07 0.106E-06 0.141E-05 0.242E-07 0.163E+01 0.152E-02 0.127E-05 .38150E-08 0.000E+00 0.134E+00 0.000E+00 0.000E+00 0.000E+00
BIGSUB   9        0  364.11081E-01 0.300E+00 0.000E+00 0.570E+01 0.363E+01 0.649E+02 0.125E-01 0.112E-01 0.742E+00 0.203E+01 0.715E-08 0.441E-08 0.140E-08 0.408E-04 0.210E-05 0.227E-08 0.124E+01 0.361E-02 0.262E-03 .14403E-05 0.000E+00 0.165E+00 0.000E+00 0.000E+00 0.000E+00
BIGSUB   1        0  365.14970E+00 0.740E+01 0.000E+00 0.349E+01 0.312E+01 0.821E+02 0.548E-02 0.732E+00 0.137E+00 0.272E+01 0.468E-09 0.100E-08 0.100E-08 0.219E-04 0.122E-03 0.200E-08 0.184E+01 0.580E-03 0.311E-04 .87154E-06 0.000E+00 0.226E+00 0.000E+00 0.000E+00 0.000E+00
BIGSUB   2        0  365.20992E+00 0.740E+01 0.000E+00 0.351E+01 0.308E+01 0.102E+03 0.258E-02 0.371E+00 0.307E+00 0.277E+01 0.671E-04 0.867E-04 0.113E-04 0.344E-04 0.608E-04 0.995E-05 0.208E+01 0.801E-03 0.986E-04 .12409E-05 0.172E-02 0.228E+00 0.000E+00 0.000E+00 0.000E+00
BIGSUB   3        0  365.15360E+00 0.740E+01 0.000E+00 0.349E+01 0.296E+01 0.904E+02 0.167E-02 0.150E+00 0.142E+00 0.280E+01 0.695E-05 0.294E-04 0.369E-05 0.547E-05 0.248E-04 0.302E-05 0.250E+01 0.895E-03 0.759E-04 .18372E-06 0.429E-04 0.233E+00 0.000E+00 0.000E+00 0.000E+00
BIGSUB   4        0  365.68097E+00 0.740E+01 0.000E+00 0.349E+01 0.295E+01 0.872E+02 0.159E-02 0.147E+00 0.297E-01 0.274E+01 0.319E-04 0.218E-04 0.316E-05 0.853E-04 0.245E-04 0.333E-05 0.256E+01 0.809E-03 0.793E-05 .33496E-05 0.162E-02 0.227E+00 0.000E+00 0.000E+00 0.000E+00
BIGSUB   5        0  365.53384E+00 0.740E+01 0.000E+00 0.349E+01 0.295E+01 0.999E+02 0.362E-03 0.690E-01 0.234E+00 0.287E+01 0.295E-02 0.118E-04 0.146E-05 0.436E-04 0.158E-05 0.134E-05 0.256E+01 0.837E-03 0.115E-03 .11887E-05 0.575E+00 0.234E+00 0.000E+00 0.000E+00 0.000E+00
BIGSUB   6        0  365.23701E-01 0.740E+01 0.000E+00 0.349E+01 0.331E+01 0.713E+02 0.125E-01 0.212E+01 0.574E+00 0.346E+01 0.648E-02 0.199E-03 0.243E-04 0.194E-03 0.320E-03 0.205E-04 0.738E+00 0.547E-03 0.276E-03 .10453E-04 0.155E+01 0.270E+00 0.000E+00 0.000E+00 0.000E+00
BIGSUB   7        0  365.37963E-01 0.740E+01 0.000E+00 0.349E+01 0.324E+01 0.635E+02 0.184E-01 0.985E+00 0.210E+00 0.255E+01 0.262E-08 0.165E-08 0.107E-08 0.264E-04 0.164E-03 0.204E-08 0.134E+01 0.675E-03 0.936E-04 .10561E-05 0.000E+00 0.212E+00 0.000E+00 0.000E+00 0.000E+00
BIGSUB   8        0  365.27046E+00 0.740E+01 0.000E+00 0.349E+01 0.303E+01 0.759E+02 0.497E-02 0.489E+00 0.711E-02 0.269E+01 0.448E-09 0.155E-06 0.198E-07 0.135E-04 0.813E-04 0.154E-07 0.219E+01 0.630E-03 0.130E-05 .53012E-06 0.000E+00 0.223E+00 0.000E+00 0.000E+00 0.000E+00
BIGSUB   9        0  365.11081E-01 0.740E+01 0.000E+00 0.349E+01 0.303E+01 0.669E+02 0.183E+00 0.940E+00 0.755E+00 0.306E+01 0.715E-08 0.997E-09 0.997E-09 0.690E-02 0.181E-03 0.199E-08 0.133E+01 0.249E-02 0.269E-03 .27550E-03 0.000E+00 0.254E+00 0.000E+00 0.000E+00 0.000E+00
BIGSUB   1        0  366.14970E+00 0.399E+02 0.000E+00 0.182E+01 0.180E+01 0.861E+02 0.117E+01 0.165E+02 0.141E+00 0.281E+02 0.328E+00 0.321E+00 0.393E-01 0.190E-03 0.176E-02 0.303E-01 0.115E+02 0.182E-01 0.325E-04 .22638E-02 0.459E+02 0.175E+01 0.000E+00 0.000E+00 0.000E+00
BIGSUB   2        0  366.20992E+00 0.399E+02 0.000E+00 0.181E+01 0.179E+01 0.105E+03 0.227E+01 0.136E+02 0.314E+00 0.269E+02 0.354E+00 0.359E+00 0.442E-01 0.353E-03 0.114E-02 0.342E-01 0.130E+02 0.218E-01 0.102E-03 .28274E-02 0.509E+02 0.148E+01 0.000E+00 0.000E+00 0.000E+00
BIGSUB   3        0  366.15360E+00 0.399E+02 0.000E+00 0.181E+01 0.179E+01 0.941E+02 0.116E+01 0.134E+02 0.144E+00 0.273E+02 0.632E+00 0.417E+00 0.512E-01 0.463E-03 0.719E-03 0.400E-01 0.137E+02 0.230E-01 0.780E-04 .34768E-02 0.856E+02 0.133E+01 0.000E+00 0.000E+00 0.000E+00
BIGSUB   4        0  366.68097E+00 0.399E+02 0.000E+00 0.181E+01 0.179E+01 0.910E+02 0.543E+00 0.136E+02 0.302E-01 0.277E+02 0.573E+00 0.475E+00 0.583E-01 0.430E-03 0.633E-03 0.454E-01 0.141E+02 0.227E-01 0.823E-05 .39798E-02 0.815E+02 0.134E+01 0.000E+00 0.000E+00 0.000E+00
BIGSUB   5        0  366.53384E+00 0.399E+02 0.000E+00 0.181E+01 0.179E+01 0.104E+03 0.173E+01 0.121E+02 0.238E+00 0.265E+02 0.682E+00 0.432E+00 0.530E-01 0.314E-03 0.275E-03 0.412E-01 0.141E+02 0.226E-01 0.118E-03 .33578E-02 0.971E+02 0.122E+01 0.000E+00 0.000E+00 0.000E+00
BIGSUB   6        0  366.23701E-01 0.399E+02 0.000E+00 0.182E+01 0.181E+01 0.746E+02 0.357E+01 0.244E+02 0.585E+00 0.290E+02 0.124E+00 0.112E+00 0.137E-01 0.310E-03 0.338E-02 0.103E-01 0.397E+01 0.644E-02 0.284E-03 .75097E-03 0.301E+02 0.198E+01 0.000E+00 0.000E+00 0.000E+00
BIGSUB   7        0  366.37963E-01 0.399E+02 0.000E+00 0.182E+01 0.181E+01 0.672E+02 0.215E+01 0.199E+02 0.222E+00 0.285E+02 0.132E+00 0.333E+00 0.408E-01 0.161E-03 0.244E-02 0.311E-01 0.833E+01 0.162E-01 0.964E-04 .28763E-02 0.235E+02 0.178E+01 0.000E+00 0.000E+00 0.000E+00
BIGSUB   8        0  366.27046E+00 0.399E+02 0.000E+00 0.182E+01 0.180E+01 0.799E+02 0.372E+00 0.163E+02 0.747E-02 0.284E+02 0.432E+00 0.424E+00 0.520E-01 0.247E-03 0.132E-02 0.403E-01 0.121E+02 0.195E-01 0.135E-05 .34689E-02 0.631E+02 0.155E+01 0.000E+00 0.000E+00 0.000E+00
BIGSUB   9        0  366.11081E-01 0.399E+02 0.000E+00 0.182E+01 0.167E+01 0.700E+02 0.461E+01 0.196E+02 0.773E+00 0.275E+02 0.806E-01 0.239E+00 0.293E-01 0.116E-01 0.393E-02 0.222E-01 0.703E+01 0.184E-01 0.285E-03 .25882E-02 0.145E+02 0.180E+01 0.000E+00 0.000E+00 0.000E+00
