1
    SWAT Dec 23 2016    VER 2016/Rev 664                                                                 0/ 0/   0      0: 0: 0

    General Input/Output section (file.cio):                                        
    2/11/2020 20:48:05 QSWAT Workflow v1.5.2                                        
                                                                                    
         Number of years in run:   12
         Area of watershed:        1.468 km2
         Random number generator cycles: 0, use default numbers

         Initial random number seed: wet/dry day prob        748932582
         Initial random number seed: radiation              1948832765
         Initial random number seed: precipitation           857034417
         Initial random number seed: 0.5 hr rainfall          67377721
         Initial random number seed: wind speed              366304404
         Initial random number seed: irrigation             1094585182
         Initial random number seed: relative humidity      1767585417
         Initial random number seed: max temperature         608439319
         Initial random number seed: min temperature         592757081

         Precipitation data used in run:
          Multiple gages read for watershed
             Daily rainfall data used

         Temperature data used in run:
          Multiple gages read for watershed

         PET method used: Penman-Monteith

         Rainfall/Runoff/Routing Option:
          Daily rainfall data
          Runoff estimated with curve number method
          Daily stream routing
           Variable Storage routing method
           Channel dimensions remain constant
           Subbasin algae/CBOD loadings not modeled
           In-stream nutrient transformations modeled using QUAL2E equations

         Subbasin Input Summary:
          Sub Latitude  Elev(m) #HRUs Ponds Elevbnds Wetlnd
            1   -14.29   199.29     3                   
            2   -14.29   111.66     4                   
            3   -14.29   323.48     6                   
            4   -14.29   139.37    17                   
            5   -14.29    71.09    12                   

         HRU Input Summary Table 1:
          Sub   HRU   Area(ha) Slope SlpLgth(m) Ovrlnd_N CondII_CN TimeConc(hr) ESCO EPCO
            1      1       0.01 0.000     121.95    0.100     70.00        3.952 0.95 1.00
            1      2       0.01 0.026      91.46    0.100     70.00        0.627 0.95 1.00
            1      3      11.92 0.398       9.15    0.100     70.00        0.103 0.95 1.00
            2      4       9.39 0.548       9.15    0.100     70.00        0.092 0.95 1.00
            2      5       0.67 0.308       9.15    0.100     77.00        0.078 0.95 1.00
            2      6       0.40 0.114      60.98    0.100     77.00        0.317 0.95 1.00
            2      7       0.22 0.155      24.39    0.100     77.00        0.167 0.95 1.00
            3      8       0.06 0.271       9.15    0.100     72.00        0.078 0.95 1.00
            3      9       0.02 0.004     121.95    0.100     70.00        1.307 0.95 1.00
            3     10       0.07 0.020      91.46    0.100     70.00        0.679 0.95 1.00
            3     11      47.88 0.673       9.15    0.100     70.00        0.119 0.95 1.00
            3     12       0.35 0.790       9.15    0.140     91.00        0.070 0.95 1.00
            3     13      14.07 0.997       9.15    0.100     77.00        0.073 0.95 1.00
            4     14       0.01 0.004     121.95    0.100     77.00        1.307 0.95 1.00
            4     15       0.02 0.017     121.95    0.100     77.00        0.847 0.95 1.00
            4     16       1.08 0.162      18.29    0.100     77.00        0.140 0.95 1.00
            4     17       0.01 0.574       9.15    0.100     77.00        0.062 0.95 1.00
            4     18       0.02 0.005     121.95    0.100     77.00        1.222 0.95 1.00
            4     19       0.01 0.014     121.95    0.100     77.00        0.897 0.95 1.00
            4     20       0.26 0.139      24.39    0.100     77.00        0.172 0.95 1.00
            4     21       0.14 0.652       9.15    0.100     72.00        0.060 0.95 1.00
            4     22       0.01 0.000     121.95    0.100     70.00        3.952 0.95 1.00
            4     23       0.01 0.024      91.46    0.100     70.00        0.642 0.95 1.00
            4     24      38.45 0.602       9.15    0.100     70.00        0.108 0.95 1.00
            4     25       0.03 0.006     121.95    0.100     77.00        1.157 0.95 1.00
            4     26       0.03 0.023      91.46    0.100     77.00        0.651 0.95 1.00
            4     27       2.60 0.345       9.15    0.100     77.00        0.077 0.95 1.00
            4     28       0.23 0.612       9.15    0.100     77.00        0.062 0.95 1.00
            4     29       1.46 0.645       9.15    0.140     91.00        0.076 0.95 1.00
            4     30       0.12 0.215      15.24    0.140     94.00        0.139 0.95 1.00
            5     31      11.38 0.520       9.15    0.100     70.00        0.101 0.95 1.00
            5     32       0.01 0.010     121.95    0.100     77.00        0.993 0.95 1.00
            5     33       0.77 0.019     121.95    0.100     77.00        0.822 0.95 1.00
            5     34       2.14 0.280       9.15    0.100     77.00        0.086 0.95 1.00
            5     35       0.12 0.279       9.15    0.100     77.00        0.078 0.95 1.00
            5     36       0.15 0.008     121.95    0.100     77.00        1.062 0.95 1.00
            5     37       0.83 0.018     121.95    0.100     77.00        0.836 0.95 1.00
            5     38       1.03 0.107      60.98    0.100     77.00        0.326 0.95 1.00
            5     39       0.02 0.199      18.29    0.100     77.00        0.130 0.95 1.00
            5     40       0.01 0.009     121.95    0.100     77.00        1.025 0.95 1.00
            5     41       0.28 0.020      91.46    0.100     77.00        0.680 0.95 1.00
            5     42       0.49 0.109      60.98    0.100     77.00        0.322 0.95 1.00

         HRU CN Input Summary Table:
          Sub   HRU   Area(ha)  LULC      Soil    CN1    CN2    CN3  Wilting Point (mm H2O)  Field Capacity (mm H2O)  Saturation (mm H2O)
            1      1       0.01  FRSE  FAGASA     51.2   70.0   85.7                   132.2                     97.2                365.5
            1      2       0.01  FRSE  FAGASA     51.2   70.0   85.7                   132.2                     97.2                365.5
            1      3      11.92  FRSE  FAGASA     51.2   70.0   85.7                   132.2                     97.2                365.5
            2      4       9.39  FRSE  FAGASA     51.2   70.0   85.7                   132.2                     97.2                365.5
            2      5       0.67  FRSE  URBAN LA   59.3   77.0   89.9                     0.8                      1.5                 75.7
            2      6       0.40  FRSE  URBAN LA   59.3   77.0   89.9                     0.8                      1.5                 75.7
            2      7       0.22  FRSE  URBAN LA   59.3   77.0   89.9                     0.8                      1.5                 75.7
            3      8       0.06  SWCH  FAGASA     53.4   72.0   86.9                   132.2                     97.2                365.5
            3      9       0.02  FRSE  FAGASA     51.2   70.0   85.7                   132.2                     97.2                365.5
            3     10       0.07  FRSE  FAGASA     51.2   70.0   85.7                   132.2                     97.2                365.5
            3     11      47.88  FRSE  FAGASA     51.2   70.0   85.7                   132.2                     97.2                365.5
            3     12       0.35  BARR  FAGASA     79.8   91.0   96.7                   132.2                     97.2                365.5
            3     13      14.07  FRSD  FAGASA     59.3   77.0   89.9                   132.2                     97.2                365.5
            4     14       0.01  FRSD  URBAN LA   59.3   77.0   89.9                     0.8                      1.5                 75.7
            4     15       0.02  FRSD  URBAN LA   59.3   77.0   89.9                     0.8                      1.5                 75.7
            4     16       1.08  FRSD  URBAN LA   59.3   77.0   89.9                     0.8                      1.5                 75.7
            4     17       0.01  FRSD  FAGASA     59.3   77.0   89.9                   132.2                     97.2                365.5
            4     18       0.02  FRSD  URBAN LA   59.3   77.0   89.9                     0.8                      1.5                 75.7
            4     19       0.01  FRSD  URBAN LA   59.3   77.0   89.9                     0.8                      1.5                 75.7
            4     20       0.26  FRSD  URBAN LA   59.3   77.0   89.9                     0.8                      1.5                 75.7
            4     21       0.14  SWCH  FAGASA     53.4   72.0   86.9                   132.2                     97.2                365.5
            4     22       0.01  FRSE  FAGASA     51.2   70.0   85.7                   132.2                     97.2                365.5
            4     23       0.01  FRSE  FAGASA     51.2   70.0   85.7                   132.2                     97.2                365.5
            4     24      38.45  FRSE  FAGASA     51.2   70.0   85.7                   132.2                     97.2                365.5
            4     25       0.03  FRSE  URBAN LA   59.3   77.0   89.9                     0.8                      1.5                 75.7
            4     26       0.03  FRSE  URBAN LA   59.3   77.0   89.9                     0.8                      1.5                 75.7
            4     27       2.60  FRSE  URBAN LA   59.3   77.0   89.9                     0.8                      1.5                 75.7
            4     28       0.23  FRSD  FAGASA     59.3   77.0   89.9                   132.2                     97.2                365.5
            4     29       1.46  BARR  FAGASA     79.8   91.0   96.7                   132.2                     97.2                365.5
            4     30       0.12  BARR  URBAN LA   85.8   94.0   97.9                     0.8                      1.5                 75.7
            5     31      11.38  FRSE  FAGASA     51.2   70.0   85.7                   132.2                     97.2                365.5
            5     32       0.01  FRSE  URBAN LA   59.3   77.0   89.9                     0.8                      1.5                 75.7
            5     33       0.77  FRSE  URBAN LA   59.3   77.0   89.9                     0.8                      1.5                 75.7
            5     34       2.14  FRSE  URBAN LA   59.3   77.0   89.9                     0.8                      1.5                 75.7
            5     35       0.12  FRSE  FAGASA     59.3   77.0   89.9                   132.2                     97.2                365.5
            5     36       0.15  FRSE  URBAN LA   59.3   77.0   89.9                     0.8                      1.5                 75.7
            5     37       0.83  FRSE  URBAN LA   59.3   77.0   89.9                     0.8                      1.5                 75.7
            5     38       1.03  FRSE  URBAN LA   59.3   77.0   89.9                     0.8                      1.5                 75.7
            5     39       0.02  FRSE  FAGASA     59.3   77.0   89.9                   132.2                     97.2                365.5
            5     40       0.01  FRSE  URBAN LA   59.3   77.0   89.9                     0.8                      1.5                 75.7
            5     41       0.28  FRSE  URBAN LA   59.3   77.0   89.9                     0.8                      1.5                 75.7
            5     42       0.49  FRSE  URBAN LA   59.3   77.0   89.9                     0.8                      1.5                 75.7

         HRU Input Summary Table 2:
          Sub   HRU   Area(ha)         SoilName Hydgrp MaxRtDpth(mm) Albedo USLE_K USLE_P USLE_LS ProfileAWC(mm) IniSoilH2O(mm)
            1      1       0.01 FAGASA             C           840.00   0.16   0.10   1.00    0.07     97.200         71.232
            1      2       0.01 FAGASA             C           840.00   0.16   0.10   1.00    0.38     97.200         71.232
            1      3      11.92 FAGASA             C           840.00   0.16   0.10   1.00    6.29     97.200         71.232
            2      4       9.39 FAGASA             C           840.00   0.16   0.10   1.00   10.22     97.200         71.232
            2      5       0.67 URBAN LAND         D           150.00   0.16   0.00   1.00    4.16      1.500          1.099
            2      6       0.40 URBAN LAND         D           150.00   0.16   0.00   1.00    2.58      1.500          1.099
            2      7       0.22 URBAN LAND         D           150.00   0.16   0.00   1.00    2.44      1.500          1.099
            3      8       0.06 FAGASA             C           840.00   0.16   0.10   1.00    3.37     97.200         71.232
            3      9       0.02 FAGASA             C           840.00   0.16   0.10   1.00    0.10     97.200         71.232
            3     10       0.07 FAGASA             C           840.00   0.16   0.10   1.00    0.28     97.200         71.232
            3     11      47.88 FAGASA             C           840.00   0.16   0.10   1.00   13.54     97.200         71.232
            3     12       0.35 FAGASA             C           100.00   0.16   0.10   1.00   16.49     97.200         71.232
            3     13      14.07 FAGASA             C           840.00   0.16   0.10   1.00   21.12     97.200         71.232
            4     14       0.01 URBAN LAND         D           150.00   0.16   0.00   1.00    0.10      1.500          1.099
            4     15       0.02 URBAN LAND         D           150.00   0.16   0.00   1.00    0.26      1.500          1.099
            4     16       1.08 URBAN LAND         D           150.00   0.16   0.00   1.00    2.20      1.500          1.099
            4     17       0.01 FAGASA             C           840.00   0.16   0.10   1.00   10.91     97.200         71.232
            4     18       0.02 URBAN LAND         D           150.00   0.16   0.00   1.00    0.11      1.500          1.099
            4     19       0.01 URBAN LAND         D           150.00   0.16   0.00   1.00    0.21      1.500          1.099
            4     20       0.26 URBAN LAND         D           150.00   0.16   0.00   1.00    2.05      1.500          1.099
            4     21       0.14 FAGASA             C           840.00   0.16   0.10   1.00   12.99     97.200         71.232
            4     22       0.01 FAGASA             C           840.00   0.16   0.10   1.00    0.07     97.200         71.232
            4     23       0.01 FAGASA             C           840.00   0.16   0.10   1.00    0.35     97.200         71.232
            4     24      38.45 FAGASA             C           840.00   0.16   0.10   1.00   11.66     97.200         71.232
            4     25       0.03 URBAN LAND         D           150.00   0.16   0.00   1.00    0.12      1.500          1.099
            4     26       0.03 URBAN LAND         D           150.00   0.16   0.00   1.00    0.33      1.500          1.099
            4     27       2.60 URBAN LAND         D           150.00   0.16   0.00   1.00    5.01      1.500          1.099
            4     28       0.23 FAGASA             C           840.00   0.16   0.10   1.00   11.93     97.200         71.232
            4     29       1.46 FAGASA             C           100.00   0.16   0.10   1.00   12.80     97.200         71.232
            4     30       0.12 URBAN LAND         D           100.00   0.16   0.00   1.00    3.13      1.500          1.099
            5     31      11.38 FAGASA             C           840.00   0.16   0.10   1.00    9.47     97.200         71.232
            5     32       0.01 URBAN LAND         D           150.00   0.16   0.00   1.00    0.16      1.500          1.099
            5     33       0.77 URBAN LAND         D           150.00   0.16   0.00   1.00    0.29      1.500          1.099
            5     34       2.14 URBAN LAND         D           150.00   0.16   0.00   1.00    3.56      1.500          1.099
            5     35       0.12 FAGASA             C           840.00   0.16   0.10   1.00    3.54     97.200         71.232
            5     36       0.15 URBAN LAND         D           150.00   0.16   0.00   1.00    0.14      1.500          1.099
            5     37       0.83 URBAN LAND         D           150.00   0.16   0.00   1.00    0.27      1.500          1.099
            5     38       1.03 URBAN LAND         D           150.00   0.16   0.00   1.00    2.34      1.500          1.099
            5     39       0.02 FAGASA             C           840.00   0.16   0.10   1.00    3.07     97.200         71.232
            5     40       0.01 URBAN LAND         D           150.00   0.16   0.00   1.00    0.15      1.500          1.099
            5     41       0.28 URBAN LAND         D           150.00   0.16   0.00   1.00    0.28      1.500          1.099
            5     42       0.49 URBAN LAND         D           150.00   0.16   0.00   1.00    2.41      1.500          1.099

         HRU Input Summary Table 3:
          Sub   HRU   Area(ha) Urban Irrig DrainTiles Pothole Pstcide Biomix Septic
            1      1       0.01                                          0.20 x
            1      2       0.01                                          0.20 x
            1      3      11.92                                          0.20 x
            2      4       9.39                                          0.20 x
            2      5       0.67                                          0.20 x
            2      6       0.40                                          0.20 x
            2      7       0.22                                          0.20 x
            3      8       0.06                                          0.20 x
            3      9       0.02                                          0.20 x
            3     10       0.07                                          0.20 x
            3     11      47.88                                          0.20 x
            3     12       0.35                                          0.20 x
            3     13      14.07                                          0.20 x
            4     14       0.01                                          0.20 x
            4     15       0.02                                          0.20 x
            4     16       1.08                                          0.20 x
            4     17       0.01                                          0.20 x
            4     18       0.02                                          0.20 x
            4     19       0.01                                          0.20 x
            4     20       0.26                                          0.20 x
            4     21       0.14                                          0.20 x
            4     22       0.01                                          0.20 x
            4     23       0.01                                          0.20 x
            4     24      38.45                                          0.20 x
            4     25       0.03                                          0.20 x
            4     26       0.03                                          0.20 x
            4     27       2.60                                          0.20 x
            4     28       0.23                                          0.20 x
            4     29       1.46                                          0.20 x
            4     30       0.12                                          0.20 x
            5     31      11.38                                          0.20 x
            5     32       0.01                                          0.20 x
            5     33       0.77                                          0.20 x
            5     34       2.14                                          0.20 x
            5     35       0.12                                          0.20 x
            5     36       0.15                                          0.20 x
            5     37       0.83                                          0.20 x
            5     38       1.03                                          0.20 x
            5     39       0.02                                          0.20 x
            5     40       0.01                                          0.20 x
            5     41       0.28                                          0.20 x
            5     42       0.49                                          0.20 x

         HRU Input Summary Table 4 (Groundwater):
          Sub   HRU   Area(ha) GWdelay(days), GWalpha(days) GWQmin(mm) GWrevap Revapmin(mm) Deepfr NO3(ppm) SolP(ppm)
            1      1       0.01        31.000         0.048   1000.000   0.020      750.000  0.050    0.000     0.000
            1      2       0.01        31.000         0.048   1000.000   0.020      750.000  0.050    0.000     0.000
            1      3      11.92        31.000         0.048   1000.000   0.020      750.000  0.050    0.000     0.000
            2      4       9.39        31.000         0.048   1000.000   0.020      750.000  0.050    0.000     0.000
            2      5       0.67        31.000         0.048   1000.000   0.020      750.000  0.050    0.000     0.000
            2      6       0.40        31.000         0.048   1000.000   0.020      750.000  0.050    0.000     0.000
            2      7       0.22        31.000         0.048   1000.000   0.020      750.000  0.050    0.000     0.000
            3      8       0.06        31.000         0.048   1000.000   0.020      750.000  0.050    0.000     0.000
            3      9       0.02        31.000         0.048   1000.000   0.020      750.000  0.050    0.000     0.000
            3     10       0.07        31.000         0.048   1000.000   0.020      750.000  0.050    0.000     0.000
            3     11      47.88        31.000         0.048   1000.000   0.020      750.000  0.050    0.000     0.000
            3     12       0.35        31.000         0.048   1000.000   0.020      750.000  0.050    0.000     0.000
            3     13      14.07        31.000         0.048   1000.000   0.020      750.000  0.050    0.000     0.000
            4     14       0.01        31.000         0.048   1000.000   0.020      750.000  0.050    0.000     0.000
            4     15       0.02        31.000         0.048   1000.000   0.020      750.000  0.050    0.000     0.000
            4     16       1.08        31.000         0.048   1000.000   0.020      750.000  0.050    0.000     0.000
            4     17       0.01        31.000         0.048   1000.000   0.020      750.000  0.050    0.000     0.000
            4     18       0.02        31.000         0.048   1000.000   0.020      750.000  0.050    0.000     0.000
            4     19       0.01        31.000         0.048   1000.000   0.020      750.000  0.050    0.000     0.000
            4     20       0.26        31.000         0.048   1000.000   0.020      750.000  0.050    0.000     0.000
            4     21       0.14        31.000         0.048   1000.000   0.020      750.000  0.050    0.000     0.000
            4     22       0.01        31.000         0.048   1000.000   0.020      750.000  0.050    0.000     0.000
            4     23       0.01        31.000         0.048   1000.000   0.020      750.000  0.050    0.000     0.000
            4     24      38.45        31.000         0.048   1000.000   0.020      750.000  0.050    0.000     0.000
            4     25       0.03        31.000         0.048   1000.000   0.020      750.000  0.050    0.000     0.000
            4     26       0.03        31.000         0.048   1000.000   0.020      750.000  0.050    0.000     0.000
            4     27       2.60        31.000         0.048   1000.000   0.020      750.000  0.050    0.000     0.000
            4     28       0.23        31.000         0.048   1000.000   0.020      750.000  0.050    0.000     0.000
            4     29       1.46        31.000         0.048   1000.000   0.020      750.000  0.050    0.000     0.000
            4     30       0.12        31.000         0.048   1000.000   0.020      750.000  0.050    0.000     0.000
            5     31      11.38        31.000         0.048   1000.000   0.020      750.000  0.050    0.000     0.000
            5     32       0.01        31.000         0.048   1000.000   0.020      750.000  0.050    0.000     0.000
            5     33       0.77        31.000         0.048   1000.000   0.020      750.000  0.050    0.000     0.000
            5     34       2.14        31.000         0.048   1000.000   0.020      750.000  0.050    0.000     0.000
            5     35       0.12        31.000         0.048   1000.000   0.020      750.000  0.050    0.000     0.000
            5     36       0.15        31.000         0.048   1000.000   0.020      750.000  0.050    0.000     0.000
            5     37       0.83        31.000         0.048   1000.000   0.020      750.000  0.050    0.000     0.000
            5     38       1.03        31.000         0.048   1000.000   0.020      750.000  0.050    0.000     0.000
            5     39       0.02        31.000         0.048   1000.000   0.020      750.000  0.050    0.000     0.000
            5     40       0.01        31.000         0.048   1000.000   0.020      750.000  0.050    0.000     0.000
            5     41       0.28        31.000         0.048   1000.000   0.020      750.000  0.050    0.000     0.000
            5     42       0.49        31.000         0.048   1000.000   0.020      750.000  0.050    0.000     0.000

         Tributary/Main Channel Characteristics
              |--------------Tributary--------------------|---------------------Main---------------------------|
          Sub  Length(km) Slope Width(m) Cond(mm/hr)     N Length(km) Slope Width(m) Depth(m) Cond(mm/hr)     N
            1        0.61 0.253     0.36      0.0000 0.014       0.12 0.220     0.36     0.06      0.0000 0.014
            2        0.63 0.336     0.34      0.0000 0.014       0.03 0.071     0.34     0.05      0.0000 0.014
            3        1.70 0.261     0.97      0.0000 0.014       1.17 0.154     0.97     0.11      0.0000 0.014
            4        1.20 0.300     0.79      0.0000 0.014       0.81 0.121     1.43     0.14      0.0000 0.014
            5        0.93 0.208     0.45      0.0000 0.014       0.40 0.014     1.62     0.15      0.0000 0.014
