1
    SWAT Dec 23 2016    VER 2016/Rev 664                                                                 0/ 0/   0      0: 0: 0

    General Input/Output section (file.cio):                                        
    2/11/2020 20:48:05 QSWAT Workflow v1.5.2                                        
                                                                                    


       SUB      GIS  MON   AREAkm2  PRECIPmm SNOMELTmm     PETmm      ETmm      SWmm    PERCmm    SURQmm    GW_Qmm    WYLDmm  SYLDt/ha ORGNkg/ha ORGPkg/haNSURQkg/ha SOLPkg/ha SEDPkg/ha LAT Q(mm)LATNO3kg/hGWNO3kg/haCHOLAmic/LCBODU mg/L DOXQ mg/L TNO3kg/ha   QTILEmm TVAPkg/ha
BIGSUB   1        0    1.11943E+00 0.269E+02 0.000E+00 0.233E+01 0.231E+01 0.919E+02 0.316E-01 0.433E+01 0.104E+00 0.147E+02 0.282E+00 0.633E+00 0.774E-01 0.288E-03 0.293E-03 0.618E-01 0.103E+02 0.101E-01 0.525E-05 .21957E-02 0.246E+02 0.871E+00 0.000E+00 0.000E+00 0.000E+00
BIGSUB   2        0    1.10671E+00 0.269E+02 0.000E+00 0.233E+01 0.231E+01 0.810E+02 0.331E-02 0.600E+01 0.000E+00 0.154E+02 0.373E+00 0.662E+00 0.809E-01 0.277E-03 0.621E-03 0.649E-01 0.935E+01 0.667E-02 0.100E-11 .21183E-02 0.280E+02 0.980E+00 0.000E+00 0.000E+00 0.000E+00
BIGSUB   3        0    1.62454E+00 0.269E+02 0.000E+00 0.233E+01 0.226E+01 0.897E+02 0.276E-01 0.498E+01 0.751E-02 0.153E+02 0.558E+00 0.745E+00 0.911E-01 0.739E-03 0.542E-03 0.736E-01 0.103E+02 0.911E-02 0.202E-05 .29717E-02 0.398E+02 0.870E+00 0.000E+00 0.000E+00 0.000E+00
BIGSUB   4        0    1.44478E+00 0.269E+02 0.000E+00 0.233E+01 0.231E+01 0.817E+02 0.110E-01 0.596E+01 0.221E-02 0.154E+02 0.669E+00 0.895E+00 0.109E+00 0.373E-03 0.556E-03 0.886E-01 0.944E+01 0.700E-02 0.631E-06 .58021E-02 0.590E+02 0.947E+00 0.000E+00 0.000E+00 0.000E+00
BIGSUB   5        0    1.17237E+00 0.269E+02 0.000E+00 0.233E+01 0.231E+01 0.644E+02 0.139E-01 0.902E+01 0.386E-02 0.161E+02 0.267E+00 0.492E+00 0.601E-01 0.236E-03 0.122E-02 0.482E-01 0.708E+01 0.509E-02 0.558E-06 .16172E-02 0.205E+02 0.111E+01 0.000E+00 0.000E+00 0.000E+00
BIGSUB   1        0    2.11943E+00 0.100E+01 0.000E+00 0.390E+01 0.307E+01 0.898E+02 0.320E-04 0.125E-02 0.106E+00 0.364E+01 0.197E-09 0.502E-05 0.614E-06 0.553E-07 0.324E-06 0.446E-06 0.352E+01 0.346E-02 0.521E-05 .38959E-09 0.000E+00 0.302E+00 0.000E+00 0.000E+00 0.000E+00
BIGSUB   2        0    2.10671E+00 0.100E+01 0.000E+00 0.390E+01 0.315E+01 0.788E+02 0.291E-02 0.132E-02 0.000E+00 0.322E+01 0.375E-09 0.100E-08 0.100E-08 0.765E-08 0.224E-06 0.200E-08 0.321E+01 0.229E-02 0.100E-11 .24357E-09 0.000E+00 0.267E+00 0.000E+00 0.000E+00 0.000E+00
BIGSUB   3        0    2.62454E+00 0.100E+01 0.000E+00 0.389E+01 0.301E+01 0.877E+02 0.177E-04 0.590E-03 0.748E-02 0.353E+01 0.918E-10 0.788E-05 0.962E-06 0.260E-07 0.140E-06 0.699E-06 0.352E+01 0.313E-02 0.199E-05 .76739E-09 0.000E+00 0.293E+00 0.000E+00 0.000E+00 0.000E+00
BIGSUB   4        0    2.44478E+00 0.100E+01 0.000E+00 0.390E+01 0.312E+01 0.796E+02 0.221E-02 0.639E-02 0.220E-02 0.325E+01 0.349E-09 0.133E-05 0.164E-06 0.102E-06 0.111E-05 0.120E-06 0.324E+01 0.240E-02 0.620E-06 .35514E-08 0.000E+00 0.270E+00 0.000E+00 0.000E+00 0.000E+00
BIGSUB   5        0    2.17237E+00 0.100E+01 0.000E+00 0.390E+01 0.333E+01 0.621E+02 0.802E-02 0.191E+00 0.384E-02 0.263E+01 0.658E-09 0.113E-08 0.101E-08 0.102E-05 0.321E-04 0.200E-08 0.243E+01 0.175E-02 0.545E-06 .40796E-07 0.000E+00 0.218E+00 0.000E+00 0.000E+00 0.000E+00
BIGSUB   1        0    3.11943E+00 0.155E+02 0.000E+00 0.471E+01 0.394E+01 0.915E+02 0.174E-01 0.695E+00 0.108E+00 0.806E+01 0.377E-01 0.878E-01 0.107E-01 0.933E-04 0.465E-04 0.857E-02 0.725E+01 0.824E-02 0.517E-05 .26125E-04 0.101E+01 0.605E+00 0.000E+00 0.000E+00 0.000E+00
BIGSUB   2        0    3.10671E+00 0.155E+02 0.000E+00 0.472E+01 0.402E+01 0.800E+02 0.343E-02 0.176E+01 0.000E+00 0.844E+01 0.473E-01 0.870E-01 0.106E-01 0.980E-04 0.235E-03 0.853E-02 0.669E+01 0.712E-02 0.100E-11 .21587E-04 0.102E+01 0.648E+00 0.000E+00 0.000E+00 0.000E+00
BIGSUB   3        0    3.62454E+00 0.155E+02 0.000E+00 0.471E+01 0.386E+01 0.889E+02 0.163E-01 0.955E+00 0.746E-02 0.835E+01 0.773E-01 0.103E+00 0.126E-01 0.369E-03 0.119E-03 0.102E-01 0.739E+01 0.898E-02 0.196E-05 .14010E-03 0.253E+01 0.617E+00 0.000E+00 0.000E+00 0.000E+00
BIGSUB   4        0    3.44478E+00 0.155E+02 0.000E+00 0.472E+01 0.398E+01 0.808E+02 0.728E-02 0.169E+01 0.220E-02 0.845E+01 0.119E+00 0.142E+00 0.174E-01 0.177E-03 0.201E-03 0.142E-01 0.676E+01 0.735E-02 0.613E-06 .64646E-03 0.788E+01 0.634E+00 0.000E+00 0.000E+00 0.000E+00
BIGSUB   5        0    3.17237E+00 0.155E+02 0.000E+00 0.472E+01 0.419E+01 0.632E+02 0.144E-01 0.364E+01 0.383E-02 0.871E+01 0.339E-01 0.653E-01 0.798E-02 0.101E-03 0.564E-03 0.640E-02 0.506E+01 0.539E-02 0.536E-06 .21175E-04 0.775E+00 0.679E+00 0.000E+00 0.000E+00 0.000E+00
BIGSUB   1        0    4.11943E+00 0.640E+01 0.000E+00 0.573E+01 0.456E+01 0.906E+02 0.413E-02 0.586E-03 0.110E+00 0.435E+01 0.197E-09 0.102E-07 0.212E-08 0.356E-07 0.154E-06 0.280E-08 0.424E+01 0.346E-02 0.512E-05 .17280E-10 0.000E+00 0.356E+00 0.000E+00 0.000E+00 0.000E+00
BIGSUB   2        0    4.10671E+00 0.640E+01 0.000E+00 0.573E+01 0.467E+01 0.789E+02 0.308E-02 0.300E+00 0.000E+00 0.425E+01 0.375E-09 0.100E-08 0.100E-08 0.849E-05 0.500E-04 0.200E-08 0.395E+01 0.285E-02 0.100E-11 .33918E-06 0.000E+00 0.348E+00 0.000E+00 0.000E+00 0.000E+00
BIGSUB   3        0    4.62454E+00 0.640E+01 0.000E+00 0.574E+01 0.447E+01 0.880E+02 0.367E-02 0.367E-02 0.744E-02 0.444E+01 0.918E-10 0.994E-03 0.121E-03 0.293E-05 0.191E-06 0.102E-03 0.443E+01 0.382E-02 0.194E-05 .12631E-05 0.548E-09 0.363E+00 0.000E+00 0.000E+00 0.000E+00
BIGSUB   4        0    4.44478E+00 0.640E+01 0.000E+00 0.573E+01 0.462E+01 0.797E+02 0.345E-02 0.260E+00 0.219E-02 0.428E+01 0.349E-09 0.552E-02 0.673E-03 0.268E-04 0.410E-04 0.564E-03 0.402E+01 0.298E-02 0.604E-06 .74173E-05 0.786E-09 0.350E+00 0.000E+00 0.000E+00 0.000E+00
BIGSUB   5        0    4.17237E+00 0.640E+01 0.000E+00 0.573E+01 0.492E+01 0.620E+02 0.948E-02 0.897E+00 0.381E-02 0.390E+01 0.658E-09 0.102E-08 0.992E-09 0.237E-04 0.150E-03 0.198E-08 0.299E+01 0.217E-02 0.526E-06 .94767E-06 0.000E+00 0.319E+00 0.000E+00 0.000E+00 0.000E+00
BIGSUB   1        0    5.11943E+00 0.257E+02 0.000E+00 0.574E+01 0.459E+01 0.926E+02 0.156E+00 0.426E+01 0.561E-01 0.154E+02 0.207E+00 0.496E+00 0.606E-01 0.240E-03 0.281E-03 0.484E-01 0.111E+02 0.141E-01 0.358E-05 .15131E-02 0.182E+02 0.923E+00 0.000E+00 0.000E+00 0.000E+00
BIGSUB   2        0    5.10671E+00 0.257E+02 0.000E+00 0.573E+01 0.470E+01 0.803E+02 0.348E-02 0.585E+01 0.000E+00 0.162E+02 0.269E+00 0.508E+00 0.621E-01 0.257E-03 0.600E-03 0.498E-01 0.104E+02 0.133E-01 0.100E-11 .13322E-02 0.197E+02 0.105E+01 0.000E+00 0.000E+00 0.000E+00
BIGSUB   3        0    5.62454E+00 0.257E+02 0.000E+00 0.574E+01 0.449E+01 0.894E+02 0.264E-01 0.479E+01 0.745E-02 0.162E+02 0.400E+00 0.564E+00 0.690E-01 0.645E-03 0.510E-03 0.557E-01 0.114E+02 0.160E-01 0.194E-05 .17985E-02 0.279E+02 0.954E+00 0.000E+00 0.000E+00 0.000E+00
BIGSUB   4        0    5.44478E+00 0.257E+02 0.000E+00 0.573E+01 0.465E+01 0.811E+02 0.102E-01 0.579E+01 0.219E-02 0.163E+02 0.464E+00 0.653E+00 0.798E-01 0.359E-03 0.534E-03 0.646E-01 0.105E+02 0.135E-01 0.605E-06 .32852E-02 0.405E+02 0.101E+01 0.000E+00 0.000E+00 0.000E+00
BIGSUB   5        0    5.17237E+00 0.257E+02 0.000E+00 0.573E+01 0.494E+01 0.632E+02 0.279E-01 0.887E+01 0.381E-02 0.167E+02 0.192E+00 0.377E+00 0.461E-01 0.223E-03 0.119E-02 0.370E-01 0.785E+01 0.100E-01 0.526E-06 .10189E-02 0.144E+02 0.115E+01 0.000E+00 0.000E+00 0.000E+00
BIGSUB   1        0    6.11943E+00 0.130E+01 0.000E+00 0.577E+01 0.360E+01 0.902E+02 0.285E-04 0.127E-02 0.253E-01 0.393E+01 0.197E-09 0.124E-08 0.103E-08 0.425E-07 0.326E-06 0.202E-08 0.389E+01 0.484E-02 0.270E-05 .64744E-10 0.000E+00 0.321E+00 0.000E+00 0.000E+00 0.000E+00
BIGSUB   2        0    6.10671E+00 0.130E+01 0.000E+00 0.576E+01 0.380E+01 0.777E+02 0.234E-02 0.135E-02 0.000E+00 0.364E+01 0.375E-09 0.100E-08 0.100E-08 0.114E-07 0.227E-06 0.200E-08 0.364E+01 0.457E-02 0.100E-11 .31185E-09 0.000E+00 0.298E+00 0.000E+00 0.000E+00 0.000E+00
BIGSUB   3        0    6.62454E+00 0.130E+01 0.000E+00 0.578E+01 0.353E+01 0.870E+02 0.158E-04 0.509E-03 0.744E-02 0.400E+01 0.918E-10 0.466E-05 0.569E-06 0.148E-07 0.119E-06 0.412E-06 0.399E+01 0.552E-02 0.193E-05 .33917E-09 0.000E+00 0.327E+00 0.000E+00 0.000E+00 0.000E+00
BIGSUB   4        0    6.44478E+00 0.130E+01 0.000E+00 0.576E+01 0.373E+01 0.786E+02 0.178E-02 0.659E-02 0.219E-02 0.369E+01 0.349E-09 0.107E-08 0.101E-08 0.135E-06 0.113E-05 0.200E-08 0.367E+01 0.467E-02 0.602E-06 .47882E-08 0.000E+00 0.301E+00 0.000E+00 0.000E+00 0.000E+00
BIGSUB   5        0    6.17237E+00 0.130E+01 0.000E+00 0.576E+01 0.422E+01 0.602E+02 0.647E-02 0.191E+00 0.380E-02 0.295E+01 0.658E-09 0.109E-08 0.100E-08 0.117E-05 0.319E-04 0.199E-08 0.275E+01 0.346E-02 0.523E-06 .46536E-07 0.000E+00 0.241E+00 0.000E+00 0.000E+00 0.000E+00
BIGSUB   1        0    7.11943E+00 0.000E+00 0.000E+00 0.575E+01 0.227E+01 0.879E+02 0.569E-07 0.684E-03 0.214E-01 0.137E+01 0.197E-09 0.114E-08 0.102E-08 0.238E-07 0.179E-06 0.201E-08 0.134E+01 0.166E-02 0.257E-05 .16853E-10 0.000E+00 0.113E+00 0.000E+00 0.000E+00 0.000E+00
BIGSUB   2        0    7.10671E+00 0.000E+00 0.000E+00 0.575E+01 0.237E+01 0.753E+02 0.115E-02 0.338E-05 0.000E+00 0.125E+01 0.375E-09 0.100E-08 0.100E-08 0.100E-08 0.137E-08 0.200E-08 0.125E+01 0.157E-02 0.100E-11 .36637E-14 0.000E+00 0.104E+00 0.000E+00 0.000E+00 0.000E+00
BIGSUB   3        0    7.62454E+00 0.000E+00 0.000E+00 0.576E+01 0.221E+01 0.848E+02 0.167E-07 0.689E-04 0.743E-02 0.138E+01 0.918E-10 0.243E-06 0.306E-07 0.289E-08 0.175E-07 0.234E-07 0.137E+01 0.189E-02 0.191E-05 .11643E-12 0.000E+00 0.114E+00 0.000E+00 0.000E+00 0.000E+00
BIGSUB   4        0    7.44478E+00 0.000E+00 0.000E+00 0.575E+01 0.233E+01 0.763E+02 0.869E-03 0.113E-02 0.218E-02 0.127E+01 0.349E-09 0.104E-08 0.100E-08 0.152E-07 0.207E-06 0.200E-08 0.126E+01 0.160E-02 0.596E-06 .32613E-09 0.000E+00 0.105E+00 0.000E+00 0.000E+00 0.000E+00
BIGSUB   5        0    7.17237E+00 0.000E+00 0.000E+00 0.575E+01 0.262E+01 0.576E+02 0.316E-02 0.178E-01 0.379E-02 0.971E+00 0.658E-09 0.989E-09 0.989E-09 0.110E-06 0.297E-05 0.198E-08 0.947E+00 0.119E-02 0.518E-06 .42640E-08 0.000E+00 0.803E-01 0.000E+00 0.000E+00 0.000E+00
BIGSUB   1        0    8.11943E+00 0.000E+00 0.000E+00 0.597E+01 0.188E+01 0.860E+02 0.000E+00 0.409E-03 0.130E-01 0.480E+00 0.197E-09 0.108E-08 0.101E-08 0.146E-07 0.107E-06 0.201E-08 0.459E+00 0.571E-03 0.231E-05 .41524E-11 0.000E+00 0.397E-01 0.000E+00 0.000E+00 0.000E+00
BIGSUB   2        0    8.10671E+00 0.000E+00 0.000E+00 0.597E+01 0.176E+01 0.736E+02 0.000E+00 0.100E-05 0.000E+00 0.432E+00 0.375E-09 0.100E-08 0.100E-08 0.100E-08 0.100E-08 0.200E-08 0.430E+00 0.539E-03 0.100E-11 .28465E-17 0.000E+00 0.357E-01 0.000E+00 0.000E+00 0.000E+00
BIGSUB   3        0    8.62454E+00 0.000E+00 0.000E+00 0.597E+01 0.182E+01 0.830E+02 0.000E+00 0.135E-04 0.740E-02 0.480E+00 0.918E-10 0.137E-07 0.255E-08 0.135E-08 0.411E-08 0.312E-08 0.471E+00 0.651E-03 0.188E-05 .69080E-15 0.000E+00 0.397E-01 0.000E+00 0.000E+00 0.000E+00
BIGSUB   4        0    8.44478E+00 0.000E+00 0.000E+00 0.597E+01 0.177E+01 0.745E+02 0.000E+00 0.278E-03 0.218E-02 0.438E+00 0.349E-09 0.102E-08 0.100E-08 0.611E-08 0.575E-07 0.200E-08 0.434E+00 0.551E-03 0.588E-06 .56340E-10 0.000E+00 0.362E-01 0.000E+00 0.000E+00 0.000E+00
BIGSUB   5        0    8.17237E+00 0.000E+00 0.000E+00 0.597E+01 0.161E+01 0.560E+02 0.000E+00 0.180E-02 0.325E-02 0.333E+00 0.658E-09 0.989E-09 0.989E-09 0.120E-07 0.301E-06 0.198E-08 0.326E+00 0.410E-03 0.478E-06 .36466E-09 0.000E+00 0.275E-01 0.000E+00 0.000E+00 0.000E+00
BIGSUB   1        0    9.11943E+00 0.709E+02 0.000E+00 0.427E+01 0.368E+01 0.935E+02 0.100E+01 0.336E+02 0.198E-01 0.503E+02 0.257E+01 0.547E+01 0.668E+00 0.124E-02 0.218E-02 0.534E+00 0.167E+02 0.250E-01 0.252E-05 .97558E-01 0.488E+03 0.140E+01 0.000E+00 0.000E+00 0.000E+00
BIGSUB   2        0    9.10671E+00 0.709E+02 0.000E+00 0.427E+01 0.374E+01 0.865E+02 0.186E-01 0.312E+02 0.000E+00 0.465E+02 0.344E+01 0.575E+01 0.702E+00 0.125E-02 0.213E-02 0.564E+00 0.152E+02 0.161E-01 0.100E-11 .98459E-01 0.574E+03 0.148E+01 0.000E+00 0.000E+00 0.000E+00
BIGSUB   3        0    9.62454E+00 0.709E+02 0.000E+00 0.427E+01 0.362E+01 0.910E+02 0.406E-01 0.348E+02 0.742E-02 0.510E+02 0.495E+01 0.624E+01 0.763E+00 0.284E-02 0.333E-02 0.616E+00 0.162E+02 0.180E-01 0.191E-05 .10865E+00 0.741E+03 0.136E+01 0.000E+00 0.000E+00 0.000E+00
BIGSUB   4        0    9.44478E+00 0.709E+02 0.000E+00 0.427E+01 0.371E+01 0.862E+02 0.263E-01 0.324E+02 0.218E-02 0.477E+02 0.516E+01 0.680E+01 0.831E+00 0.156E-02 0.209E-02 0.671E+00 0.153E+02 0.162E-01 0.596E-06 .12356E+00 0.815E+03 0.145E+01 0.000E+00 0.000E+00 0.000E+00
BIGSUB   5        0    9.17237E+00 0.709E+02 0.000E+00 0.427E+01 0.387E+01 0.770E+02 0.681E-01 0.284E+02 0.320E-02 0.399E+02 0.245E+01 0.426E+01 0.520E+00 0.101E-02 0.241E-02 0.417E+00 0.115E+02 0.122E-01 0.477E-06 .73281E-01 0.416E+03 0.151E+01 0.000E+00 0.000E+00 0.000E+00
BIGSUB   1        0   10.11943E+00 0.498E+02 0.000E+00 0.413E+01 0.360E+01 0.936E+02 0.193E+01 0.195E+02 0.287E-01 0.415E+02 0.197E-09 0.376E+01 0.459E+00 0.738E-03 0.122E-02 0.367E+00 0.219E+02 0.423E-01 0.286E-05 .33236E-01 0.349E-07 0.351E+01 0.000E+00 0.000E+00 0.000E+00
BIGSUB   2        0   10.10671E+00 0.498E+02 0.000E+00 0.412E+01 0.366E+01 0.879E+02 0.379E+00 0.224E+02 0.000E+00 0.421E+02 0.375E-09 0.388E+01 0.474E+00 0.775E-03 0.188E-02 0.381E+00 0.197E+02 0.288E-01 0.100E-11 .33027E-01 0.102E-07 0.356E+01 0.000E+00 0.000E+00 0.000E+00
BIGSUB   3        0   10.62454E+00 0.498E+02 0.000E+00 0.414E+01 0.355E+01 0.928E+02 0.326E+00 0.206E+02 0.749E-02 0.416E+02 0.206E-05 0.404E+01 0.494E+00 0.191E-02 0.192E-02 0.399E+00 0.210E+02 0.320E-01 0.198E-05 .35584E-01 0.637E-03 0.352E+01 0.000E+00 0.000E+00 0.000E+00
BIGSUB   4        0   10.44478E+00 0.498E+02 0.000E+00 0.413E+01 0.363E+01 0.877E+02 0.361E+00 0.222E+02 0.220E-02 0.420E+02 0.349E-09 0.444E+01 0.542E+00 0.101E-02 0.170E-02 0.438E+00 0.197E+02 0.292E-01 0.617E-06 .42338E-01 0.267E-07 0.355E+01 0.000E+00 0.000E+00 0.000E+00
BIGSUB   5        0   10.17237E+00 0.498E+02 0.000E+00 0.412E+01 0.377E+01 0.778E+02 0.385E+00 0.279E+02 0.327E-02 0.428E+02 0.658E-09 0.289E+01 0.353E+00 0.637E-03 0.320E-02 0.283E+00 0.149E+02 0.220E-01 0.496E-06 .24814E-01 0.342E-07 0.362E+01 0.000E+00 0.000E+00 0.000E+00
BIGSUB   1        0   11.11943E+00 0.531E+02 0.000E+00 0.217E+01 0.216E+01 0.950E+02 0.202E+01 0.220E+02 0.398E-01 0.463E+02 0.171E+01 0.324E+01 0.396E+00 0.496E-03 0.133E-02 0.316E+00 0.243E+02 0.462E-01 0.338E-05 .29103E-01 0.230E+03 0.204E+01 0.000E+00 0.000E+00 0.000E+00
BIGSUB   2        0   11.10671E+00 0.531E+02 0.000E+00 0.218E+01 0.216E+01 0.893E+02 0.906E+00 0.253E+02 0.000E+00 0.474E+02 0.236E+01 0.335E+01 0.409E+00 0.545E-03 0.204E-02 0.329E+00 0.221E+02 0.388E-01 0.100E-11 .29187E-01 0.279E+03 0.235E+01 0.000E+00 0.000E+00 0.000E+00
BIGSUB   3        0   11.62454E+00 0.531E+02 0.000E+00 0.217E+01 0.212E+01 0.948E+02 0.749E+00 0.235E+02 0.761E-02 0.470E+02 0.340E+01 0.338E+01 0.414E+00 0.149E-02 0.212E-02 0.334E+00 0.235E+02 0.411E-01 0.208E-05 .30248E-01 0.364E+03 0.197E+01 0.000E+00 0.000E+00 0.000E+00
BIGSUB   4        0   11.44478E+00 0.531E+02 0.000E+00 0.218E+01 0.216E+01 0.892E+02 0.854E+00 0.251E+02 0.223E-02 0.473E+02 0.356E+01 0.372E+01 0.454E+00 0.735E-03 0.186E-02 0.367E+00 0.222E+02 0.394E-01 0.648E-06 .35255E-01 0.413E+03 0.225E+01 0.000E+00 0.000E+00 0.000E+00
BIGSUB   5        0   11.17237E+00 0.531E+02 0.000E+00 0.218E+01 0.217E+01 0.791E+02 0.785E+00 0.311E+02 0.337E-02 0.478E+02 0.168E+01 0.250E+01 0.305E+00 0.452E-03 0.348E-02 0.245E+00 0.167E+02 0.293E-01 0.529E-06 .21972E-01 0.203E+03 0.277E+01 0.000E+00 0.000E+00 0.000E+00
BIGSUB   1        0   12.11943E+00 0.389E+02 0.000E+00 0.188E+01 0.186E+01 0.953E+02 0.195E+01 0.123E+02 0.527E-01 0.355E+02 0.197E-09 0.149E+01 0.182E+00 0.257E-03 0.723E-03 0.146E+00 0.231E+02 0.435E-01 0.410E-05 .71485E-02 0.303E-07 0.296E+01 0.000E+00 0.000E+00 0.000E+00
BIGSUB   2        0   12.10671E+00 0.389E+02 0.000E+00 0.188E+01 0.187E+01 0.897E+02 0.913E+00 0.151E+02 0.000E+00 0.362E+02 0.375E-09 0.152E+01 0.185E+00 0.289E-03 0.127E-02 0.149E+00 0.211E+02 0.391E-01 0.100E-11 .69480E-02 0.846E-08 0.302E+01 0.000E+00 0.000E+00 0.000E+00
BIGSUB   3        0   12.62454E+00 0.389E+02 0.000E+00 0.187E+01 0.183E+01 0.952E+02 0.862E+00 0.135E+02 0.776E-02 0.362E+02 0.378E-06 0.149E+01 0.183E+00 0.961E-03 0.122E-02 0.148E+00 0.227E+02 0.418E-01 0.220E-05 .71760E-02 0.106E-03 0.302E+01 0.000E+00 0.000E+00 0.000E+00
BIGSUB   4        0   12.44478E+00 0.389E+02 0.000E+00 0.188E+01 0.186E+01 0.896E+02 0.864E+00 0.150E+02 0.228E-02 0.362E+02 0.349E-09 0.166E+01 0.202E+00 0.424E-03 0.114E-02 0.163E+00 0.213E+02 0.411E-01 0.684E-06 .88198E-02 0.186E-07 0.302E+01 0.000E+00 0.000E+00 0.000E+00
BIGSUB   5        0   12.17237E+00 0.389E+02 0.000E+00 0.188E+01 0.187E+01 0.798E+02 0.790E+00 0.202E+02 0.350E-02 0.361E+02 0.658E-09 0.113E+01 0.139E+00 0.249E-03 0.236E-02 0.111E+00 0.159E+02 0.294E-01 0.574E-06 .52855E-02 0.302E-07 0.302E+01 0.000E+00 0.000E+00 0.000E+00
BIGSUB   1        0   13.11943E+00 0.150E+02 0.000E+00 0.190E+01 0.189E+01 0.953E+02 0.962E+00 0.797E+00 0.659E-01 0.163E+02 0.648E-01 0.113E+00 0.139E-01 0.302E-04 0.473E-04 0.111E-01 0.154E+02 0.280E-01 0.493E-05 .10654E-04 0.877E+00 0.129E+01 0.000E+00 0.000E+00 0.000E+00
BIGSUB   2        0   13.10671E+00 0.150E+02 0.000E+00 0.190E+01 0.189E+01 0.898E+02 0.458E+00 0.213E+01 0.000E+00 0.162E+02 0.891E-01 0.114E+00 0.140E-01 0.415E-04 0.265E-03 0.112E-01 0.141E+02 0.255E-01 0.100E-11 .10457E-04 0.105E+01 0.129E+01 0.000E+00 0.000E+00 0.000E+00
BIGSUB   3        0   13.62454E+00 0.150E+02 0.000E+00 0.190E+01 0.186E+01 0.951E+02 0.447E+00 0.113E+01 0.792E-02 0.165E+02 0.141E+00 0.116E+00 0.143E-01 0.233E-03 0.123E-03 0.115E-01 0.154E+02 0.278E-01 0.232E-05 .37620E-04 0.256E+01 0.129E+01 0.000E+00 0.000E+00 0.000E+00
BIGSUB   4        0   13.44478E+00 0.150E+02 0.000E+00 0.190E+01 0.189E+01 0.897E+02 0.433E+00 0.202E+01 0.232E-02 0.163E+02 0.198E+00 0.137E+00 0.168E-01 0.935E-04 0.225E-03 0.136E-01 0.142E+02 0.274E-01 0.719E-06 .15554E-03 0.784E+01 0.128E+01 0.000E+00 0.000E+00 0.000E+00
BIGSUB   5        0   13.17237E+00 0.150E+02 0.000E+00 0.190E+01 0.189E+01 0.801E+02 0.417E+00 0.476E+01 0.364E-02 0.154E+02 0.638E-01 0.866E-01 0.106E-01 0.517E-04 0.702E-03 0.849E-02 0.106E+02 0.192E-01 0.621E-06 .10329E-04 0.786E+00 0.124E+01 0.000E+00 0.000E+00 0.000E+00
BIGSUB   1        0   14.11943E+00 0.234E+02 0.000E+00 0.210E+01 0.209E+01 0.951E+02 0.141E+01 0.369E+01 0.800E-01 0.198E+02 0.270E+00 0.571E+00 0.698E-01 0.580E-04 0.210E-03 0.558E-01 0.161E+02 0.283E-01 0.596E-05 .78947E-03 0.137E+02 0.135E+01 0.000E+00 0.000E+00 0.000E+00
BIGSUB   2        0   14.10671E+00 0.234E+02 0.000E+00 0.210E+01 0.209E+01 0.897E+02 0.668E+00 0.567E+01 0.000E+00 0.204E+02 0.371E+00 0.576E+00 0.703E-01 0.689E-04 0.558E-03 0.565E-01 0.147E+02 0.261E-01 0.100E-11 .75371E-03 0.164E+02 0.143E+01 0.000E+00 0.000E+00 0.000E+00
BIGSUB   3        0   14.62454E+00 0.234E+02 0.000E+00 0.210E+01 0.206E+01 0.949E+02 0.653E+00 0.439E+01 0.809E-02 0.205E+02 0.541E+00 0.566E+00 0.693E-01 0.342E-03 0.414E-03 0.560E-01 0.161E+02 0.285E-01 0.243E-05 .87059E-03 0.227E+02 0.136E+01 0.000E+00 0.000E+00 0.000E+00
BIGSUB   4        0   14.44478E+00 0.234E+02 0.000E+00 0.210E+01 0.209E+01 0.897E+02 0.633E+00 0.554E+01 0.237E-02 0.204E+02 0.584E+00 0.636E+00 0.776E-01 0.125E-03 0.486E-03 0.627E-01 0.149E+02 0.282E-01 0.754E-06 .13675E-02 0.308E+02 0.140E+01 0.000E+00 0.000E+00 0.000E+00
BIGSUB   5        0   14.17237E+00 0.234E+02 0.000E+00 0.210E+01 0.210E+01 0.803E+02 0.591E+00 0.911E+01 0.380E-02 0.202E+02 0.265E+00 0.433E+00 0.528E-01 0.695E-04 0.119E-02 0.424E-01 0.111E+02 0.197E-01 0.676E-06 .58909E-03 0.120E+02 0.148E+01 0.000E+00 0.000E+00 0.000E+00
BIGSUB   1        0   15.11943E+00 0.175E+02 0.000E+00 0.244E+01 0.243E+01 0.948E+02 0.109E+01 0.146E+01 0.944E-01 0.155E+02 0.197E-09 0.142E+00 0.173E-01 0.270E-04 0.823E-04 0.138E-01 0.140E+02 0.237E-01 0.714E-05 .49835E-04 0.249E-08 0.129E+01 0.000E+00 0.000E+00 0.000E+00
BIGSUB   2        0   15.10671E+00 0.175E+02 0.000E+00 0.244E+01 0.243E+01 0.895E+02 0.515E+00 0.301E+01 0.000E+00 0.158E+02 0.375E-09 0.142E+00 0.174E-01 0.337E-04 0.342E-03 0.140E-01 0.128E+02 0.219E-01 0.100E-11 .47545E-04 0.242E-08 0.131E+01 0.000E+00 0.000E+00 0.000E+00
BIGSUB   3        0   15.62454E+00 0.175E+02 0.000E+00 0.245E+01 0.239E+01 0.946E+02 0.503E+00 0.191E+01 0.827E-02 0.160E+02 0.918E-10 0.141E+00 0.172E-01 0.204E-03 0.192E-03 0.139E-01 0.141E+02 0.240E-01 0.254E-05 .78261E-04 0.468E-08 0.133E+01 0.000E+00 0.000E+00 0.000E+00
BIGSUB   4        0   15.44478E+00 0.175E+02 0.000E+00 0.244E+01 0.243E+01 0.894E+02 0.488E+00 0.289E+01 0.242E-02 0.158E+02 0.349E-09 0.162E+00 0.197E-01 0.707E-04 0.291E-03 0.160E-01 0.129E+02 0.237E-01 0.787E-06 .20703E-03 0.590E-08 0.132E+01 0.000E+00 0.000E+00 0.000E+00
BIGSUB   5        0   15.17237E+00 0.175E+02 0.000E+00 0.244E+01 0.243E+01 0.802E+02 0.466E+00 0.581E+01 0.397E-02 0.155E+02 0.658E-09 0.107E+00 0.131E-01 0.399E-04 0.823E-03 0.105E-01 0.966E+01 0.164E-01 0.734E-06 .39587E-04 0.124E-07 0.129E+01 0.000E+00 0.000E+00 0.000E+00
BIGSUB   1        0   16.11943E+00 0.840E+01 0.000E+00 0.275E+01 0.274E+01 0.945E+02 0.385E+00 0.268E-02 0.108E+00 0.858E+01 0.197E-09 0.176E-06 0.224E-07 0.513E-07 0.655E-06 0.175E-07 0.846E+01 0.131E-01 0.834E-05 .24491E-09 0.000E+00 0.711E+00 0.000E+00 0.000E+00 0.000E+00
BIGSUB   2        0   16.10671E+00 0.840E+01 0.000E+00 0.276E+01 0.274E+01 0.892E+02 0.181E+00 0.678E+00 0.000E+00 0.842E+01 0.375E-09 0.100E-08 0.100E-08 0.512E-05 0.109E-03 0.200E-08 0.774E+01 0.118E-01 0.100E-11 .20474E-06 0.000E+00 0.697E+00 0.000E+00 0.000E+00 0.000E+00
BIGSUB   3        0   16.62454E+00 0.840E+01 0.000E+00 0.275E+01 0.268E+01 0.943E+02 0.172E+00 0.548E-01 0.843E-02 0.870E+01 0.309E-02 0.869E-03 0.109E-03 0.229E-04 0.866E-05 0.907E-04 0.863E+01 0.132E-01 0.264E-05 .15609E-05 0.158E+00 0.719E+00 0.000E+00 0.000E+00 0.000E+00
BIGSUB   4        0   16.44478E+00 0.840E+01 0.000E+00 0.276E+01 0.274E+01 0.891E+02 0.170E+00 0.591E+00 0.247E-02 0.845E+01 0.163E-01 0.355E-02 0.433E-03 0.163E-04 0.877E-04 0.365E-03 0.785E+01 0.128E-01 0.815E-06 .97219E-05 0.865E+00 0.695E+00 0.000E+00 0.000E+00 0.000E+00
BIGSUB   5        0   16.17237E+00 0.840E+01 0.000E+00 0.276E+01 0.275E+01 0.800E+02 0.190E+00 0.197E+01 0.413E-02 0.783E+01 0.260E-04 0.906E-04 0.111E-04 0.144E-04 0.316E-03 0.872E-05 0.585E+01 0.888E-02 0.789E-06 .57355E-06 0.258E-03 0.648E+00 0.000E+00 0.000E+00 0.000E+00
BIGSUB   1        0   17.11943E+00 0.323E+02 0.000E+00 0.294E+01 0.286E+01 0.943E+02 0.160E+01 0.814E+01 0.123E+00 0.242E+02 0.398E+00 0.782E+00 0.956E-01 0.744E-04 0.447E-03 0.764E-01 0.159E+02 0.250E-01 0.980E-05 .35438E-02 0.425E+02 0.135E+01 0.000E+00 0.000E+00 0.000E+00
BIGSUB   2        0   17.10671E+00 0.323E+02 0.000E+00 0.294E+01 0.287E+01 0.891E+02 0.731E+00 0.106E+02 0.000E+00 0.252E+02 0.547E+00 0.785E+00 0.959E-01 0.764E-04 0.922E-03 0.771E-01 0.146E+02 0.227E-01 0.100E-11 .34182E-02 0.514E+02 0.151E+01 0.000E+00 0.000E+00 0.000E+00
BIGSUB   3        0   17.62454E+00 0.323E+02 0.000E+00 0.294E+01 0.283E+01 0.942E+02 0.717E+00 0.919E+01 0.862E-02 0.251E+02 0.795E+00 0.761E+00 0.930E-01 0.351E-03 0.806E-03 0.752E-01 0.159E+02 0.247E-01 0.274E-05 .34709E-02 0.685E+02 0.135E+01 0.000E+00 0.000E+00 0.000E+00
BIGSUB   4        0   17.44478E+00 0.323E+02 0.000E+00 0.294E+01 0.287E+01 0.891E+02 0.694E+00 0.105E+02 0.252E-02 0.252E+02 0.851E+00 0.845E+00 0.103E+00 0.122E-03 0.813E-03 0.834E-01 0.147E+02 0.243E-01 0.845E-06 .42516E-02 0.838E+02 0.146E+01 0.000E+00 0.000E+00 0.000E+00
BIGSUB   5        0   17.17237E+00 0.323E+02 0.000E+00 0.294E+01 0.289E+01 0.800E+02 0.644E+00 0.148E+02 0.431E-02 0.258E+02 0.390E+00 0.589E+00 0.719E-01 0.709E-04 0.179E-02 0.578E-01 0.110E+02 0.171E-01 0.853E-06 .26076E-02 0.374E+02 0.171E+01 0.000E+00 0.000E+00 0.000E+00
BIGSUB   1        0   18.11943E+00 0.250E+01 0.000E+00 0.254E+01 0.249E+01 0.937E+02 0.367E-04 0.291E-02 0.136E+00 0.603E+01 0.197E-09 0.509E-05 0.623E-06 0.410E-07 0.694E-06 0.451E-06 0.588E+01 0.861E-02 0.112E-04 .70993E-09 0.000E+00 0.498E+00 0.000E+00 0.000E+00 0.000E+00
BIGSUB   2        0   18.10671E+00 0.250E+01 0.000E+00 0.254E+01 0.248E+01 0.884E+02 0.193E-01 0.905E-01 0.000E+00 0.552E+01 0.375E-09 0.100E-08 0.100E-08 0.149E-05 0.145E-04 0.200E-08 0.542E+01 0.782E-02 0.100E-11 .59459E-07 0.000E+00 0.455E+00 0.000E+00 0.000E+00 0.000E+00
BIGSUB   3        0   18.62454E+00 0.250E+01 0.000E+00 0.253E+01 0.244E+01 0.935E+02 0.203E-04 0.928E-03 0.878E-02 0.595E+01 0.918E-10 0.803E-05 0.980E-06 0.109E-07 0.200E-06 0.711E-06 0.594E+01 0.854E-02 0.282E-05 .13178E-08 0.000E+00 0.491E+00 0.000E+00 0.000E+00 0.000E+00
BIGSUB   4        0   18.44478E+00 0.250E+01 0.000E+00 0.254E+01 0.247E+01 0.884E+02 0.149E-01 0.789E-01 0.256E-02 0.556E+01 0.349E-09 0.136E-05 0.166E-06 0.160E-05 0.127E-04 0.121E-06 0.548E+01 0.835E-02 0.868E-06 .63495E-07 0.000E+00 0.459E+00 0.000E+00 0.000E+00 0.000E+00
BIGSUB   5        0   18.17237E+00 0.250E+01 0.000E+00 0.254E+01 0.249E+01 0.792E+02 0.532E-01 0.529E+00 0.447E-02 0.463E+01 0.658E-09 0.113E-08 0.101E-08 0.450E-05 0.850E-04 0.199E-08 0.410E+01 0.588E-02 0.906E-06 .17936E-06 0.000E+00 0.382E+00 0.000E+00 0.000E+00 0.000E+00
BIGSUB   1        0   19.11943E+00 0.107E+02 0.000E+00 0.222E+01 0.221E+01 0.950E+02 0.307E+00 0.697E-01 0.149E+00 0.674E+01 0.262E-02 0.540E-02 0.660E-03 0.252E-05 0.404E-05 0.527E-03 0.651E+01 0.749E-02 0.125E-04 .22156E-07 0.892E-02 0.556E+00 0.000E+00 0.000E+00 0.000E+00
BIGSUB   2        0   19.10671E+00 0.107E+02 0.000E+00 0.223E+01 0.221E+01 0.897E+02 0.953E-01 0.995E+00 0.000E+00 0.689E+01 0.355E-02 0.533E-02 0.651E-03 0.770E-05 0.154E-03 0.523E-03 0.590E+01 0.580E-02 0.100E-11 .24009E-06 0.107E-01 0.569E+00 0.000E+00 0.000E+00 0.000E+00
BIGSUB   3        0   19.62454E+00 0.107E+02 0.000E+00 0.221E+01 0.217E+01 0.948E+02 0.917E-01 0.216E+00 0.894E-02 0.679E+01 0.947E-02 0.662E-02 0.817E-03 0.638E-04 0.297E-04 0.665E-03 0.657E+01 0.672E-02 0.288E-05 .66612E-05 0.428E+00 0.554E+00 0.000E+00 0.000E+00 0.000E+00
BIGSUB   4        0   19.44478E+00 0.107E+02 0.000E+00 0.223E+01 0.221E+01 0.896E+02 0.903E-01 0.893E+00 0.261E-02 0.687E+01 0.277E-01 0.103E-01 0.126E-02 0.212E-04 0.125E-03 0.104E-02 0.598E+01 0.623E-02 0.887E-06 .39100E-04 0.225E+01 0.559E+00 0.000E+00 0.000E+00 0.000E+00
BIGSUB   5        0   19.17237E+00 0.107E+02 0.000E+00 0.223E+01 0.222E+01 0.803E+02 0.123E+00 0.258E+01 0.462E-02 0.705E+01 0.261E-02 0.426E-02 0.520E-03 0.167E-04 0.411E-03 0.418E-03 0.446E+01 0.440E-02 0.955E-06 .72825E-06 0.111E-01 0.583E+00 0.000E+00 0.000E+00 0.000E+00
BIGSUB   1        0   20.11943E+00 0.860E+01 0.000E+00 0.457E+01 0.387E+01 0.933E+02 0.447E+00 0.975E-03 0.161E+00 0.631E+01 0.197E-09 0.965E-08 0.205E-08 0.155E-07 0.237E-06 0.276E-08 0.614E+01 0.838E-02 0.138E-04 .14303E-10 0.000E+00 0.521E+00 0.000E+00 0.000E+00 0.000E+00
BIGSUB   2        0   20.10671E+00 0.860E+01 0.000E+00 0.456E+01 0.395E+01 0.880E+02 0.214E+00 0.699E+00 0.000E+00 0.629E+01 0.375E-09 0.100E-08 0.100E-08 0.481E-05 0.113E-03 0.200E-08 0.559E+01 0.713E-02 0.100E-11 .19235E-06 0.000E+00 0.519E+00 0.000E+00 0.000E+00 0.000E+00
BIGSUB   3        0   20.62454E+00 0.860E+01 0.000E+00 0.458E+01 0.383E+01 0.932E+02 0.207E+00 0.633E-01 0.908E-02 0.637E+01 0.918E-10 0.104E-02 0.132E-03 0.255E-04 0.995E-05 0.110E-03 0.630E+01 0.824E-02 0.294E-05 .26456E-05 0.123E-08 0.526E+00 0.000E+00 0.000E+00 0.000E+00
BIGSUB   4        0   20.44478E+00 0.860E+01 0.000E+00 0.456E+01 0.392E+01 0.880E+02 0.201E+00 0.611E+00 0.265E-02 0.630E+01 0.349E-09 0.385E-02 0.469E-03 0.152E-04 0.907E-04 0.397E-03 0.568E+01 0.778E-02 0.902E-06 .16375E-04 0.145E-08 0.520E+00 0.000E+00 0.000E+00 0.000E+00
BIGSUB   5        0   20.17237E+00 0.860E+01 0.000E+00 0.455E+01 0.409E+01 0.785E+02 0.217E+00 0.195E+01 0.477E-02 0.618E+01 0.658E-09 0.126E-03 0.154E-04 0.134E-04 0.315E-03 0.121E-04 0.423E+01 0.538E-02 0.100E-05 .53941E-06 0.860E-09 0.510E+00 0.000E+00 0.000E+00 0.000E+00
BIGSUB   1        0   21.11943E+00 0.180E+01 0.000E+00 0.444E+01 0.323E+01 0.916E+02 0.110E-04 0.587E-03 0.172E+00 0.251E+01 0.197E-09 0.136E-08 0.104E-08 0.966E-08 0.143E-06 0.203E-08 0.233E+01 0.289E-02 0.149E-04 .34897E-11 0.000E+00 0.207E+00 0.000E+00 0.000E+00 0.000E+00
BIGSUB   2        0   21.10671E+00 0.180E+01 0.000E+00 0.444E+01 0.336E+01 0.860E+02 0.186E-01 0.416E-01 0.000E+00 0.218E+01 0.375E-09 0.100E-08 0.100E-08 0.764E-06 0.675E-05 0.200E-08 0.214E+01 0.246E-02 0.100E-11 .30170E-07 0.000E+00 0.181E+00 0.000E+00 0.000E+00 0.000E+00
BIGSUB   3        0   21.62454E+00 0.180E+01 0.000E+00 0.444E+01 0.319E+01 0.914E+02 0.607E-05 0.685E-05 0.920E-02 0.242E+01 0.918E-10 0.220E-08 0.114E-08 0.111E-08 0.235E-08 0.210E-08 0.241E+01 0.287E-02 0.297E-05 .44194E-16 0.000E+00 0.201E+00 0.000E+00 0.000E+00 0.000E+00
BIGSUB   4        0   21.44478E+00 0.180E+01 0.000E+00 0.444E+01 0.332E+01 0.861E+02 0.143E-01 0.344E-01 0.268E-02 0.222E+01 0.349E-09 0.112E-08 0.101E-08 0.808E-06 0.560E-05 0.201E-08 0.218E+01 0.269E-02 0.910E-06 .31858E-07 0.000E+00 0.183E+00 0.000E+00 0.000E+00 0.000E+00
BIGSUB   5        0   21.17237E+00 0.180E+01 0.000E+00 0.445E+01 0.363E+01 0.763E+02 0.513E-01 0.175E+00 0.490E-02 0.180E+01 0.658E-09 0.989E-09 0.989E-09 0.247E-05 0.283E-04 0.198E-08 0.162E+01 0.186E-02 0.104E-05 .97906E-07 0.000E+00 0.149E+00 0.000E+00 0.000E+00 0.000E+00
BIGSUB   1        0   22.11943E+00 0.810E+01 0.000E+00 0.436E+01 0.373E+01 0.926E+02 0.456E-02 0.354E-03 0.182E+00 0.316E+01 0.197E-09 0.101E-08 0.100E-08 0.622E-08 0.867E-07 0.200E-08 0.297E+01 0.121E-02 0.159E-04 .81357E-12 0.000E+00 0.262E+00 0.000E+00 0.000E+00 0.000E+00
BIGSUB   2        0   22.10671E+00 0.810E+01 0.000E+00 0.436E+01 0.379E+01 0.865E+02 0.177E-01 0.644E+00 0.000E+00 0.344E+01 0.375E-09 0.100E-08 0.100E-08 0.643E-05 0.105E-03 0.200E-08 0.279E+01 0.922E-03 0.100E-11 .25692E-06 0.000E+00 0.286E+00 0.000E+00 0.000E+00 0.000E+00
BIGSUB   3        0   22.62454E+00 0.810E+01 0.000E+00 0.437E+01 0.368E+01 0.922E+02 0.390E-02 0.359E-01 0.930E-02 0.321E+01 0.208E-02 0.512E-03 0.638E-04 0.184E-04 0.523E-05 0.536E-04 0.316E+01 0.118E-02 0.298E-05 .23466E-05 0.175E+00 0.265E+00 0.000E+00 0.000E+00 0.000E+00
BIGSUB   4        0   22.44478E+00 0.810E+01 0.000E+00 0.436E+01 0.376E+01 0.866E+02 0.149E-01 0.553E+00 0.271E-02 0.340E+01 0.110E-01 0.228E-02 0.278E-03 0.174E-04 0.834E-04 0.236E-03 0.285E+01 0.102E-02 0.913E-06 .14688E-04 0.962E+00 0.279E+00 0.000E+00 0.000E+00 0.000E+00
BIGSUB   5        0   22.17237E+00 0.810E+01 0.000E+00 0.436E+01 0.393E+01 0.763E+02 0.495E-01 0.173E+01 0.501E-02 0.385E+01 0.119E-04 0.413E-04 0.504E-05 0.174E-04 0.282E-03 0.397E-05 0.211E+01 0.701E-03 0.107E-05 .69248E-06 0.176E-03 0.320E+00 0.000E+00 0.000E+00 0.000E+00
BIGSUB   1        0   23.11943E+00 0.000E+00 0.000E+00 0.418E+01 0.217E+01 0.905E+02 0.463E-05 0.214E-03 0.190E+00 0.122E+01 0.197E-09 0.999E-09 0.999E-09 0.414E-08 0.526E-07 0.200E-08 0.102E+01 0.415E-03 0.167E-04 .18458E-12 0.000E+00 0.101E+00 0.000E+00 0.000E+00 0.000E+00
BIGSUB   2        0   23.10671E+00 0.000E+00 0.000E+00 0.418E+01 0.235E+01 0.842E+02 0.168E-01 0.369E-03 0.000E+00 0.961E+00 0.375E-09 0.100E-08 0.100E-08 0.463E-08 0.610E-07 0.200E-08 0.958E+00 0.317E-03 0.100E-11 .10374E-09 0.000E+00 0.793E-01 0.000E+00 0.000E+00 0.000E+00
BIGSUB   3        0   23.62454E+00 0.000E+00 0.000E+00 0.417E+01 0.214E+01 0.901E+02 0.255E-05 0.126E-05 0.938E-02 0.110E+01 0.918E-10 0.100E-08 0.100E-08 0.100E-08 0.106E-08 0.200E-08 0.109E+01 0.407E-03 0.298E-05 .44663E-20 0.000E+00 0.905E-01 0.000E+00 0.000E+00 0.000E+00
BIGSUB   4        0   23.44478E+00 0.000E+00 0.000E+00 0.418E+01 0.230E+01 0.843E+02 0.129E-01 0.177E-02 0.273E-02 0.985E+00 0.349E-09 0.100E-08 0.999E-09 0.278E-07 0.293E-06 0.200E-08 0.978E+00 0.349E-03 0.912E-06 .10330E-08 0.000E+00 0.813E-01 0.000E+00 0.000E+00 0.000E+00
BIGSUB   5        0   23.17237E+00 0.000E+00 0.000E+00 0.418E+01 0.269E+01 0.735E+02 0.462E-01 0.538E-01 0.510E-02 0.788E+00 0.658E-09 0.989E-09 0.989E-09 0.539E-06 0.877E-05 0.198E-08 0.727E+00 0.241E-03 0.109E-05 .21227E-07 0.000E+00 0.650E-01 0.000E+00 0.000E+00 0.000E+00
BIGSUB   1        0   24.11943E+00 0.000E+00 0.000E+00 0.475E+01 0.192E+01 0.886E+02 0.930E-08 0.129E-03 0.198E+00 0.558E+00 0.197E-09 0.999E-09 0.999E-09 0.290E-08 0.321E-07 0.200E-08 0.350E+00 0.143E-03 0.173E-04 .41227E-13 0.000E+00 0.464E-01 0.000E+00 0.000E+00 0.000E+00
BIGSUB   2        0   24.10671E+00 0.000E+00 0.000E+00 0.475E+01 0.200E+01 0.821E+02 0.158E-01 0.164E-05 0.000E+00 0.332E+00 0.375E-09 0.100E-08 0.100E-08 0.100E-08 0.107E-08 0.200E-08 0.329E+00 0.109E-03 0.100E-11 .25363E-15 0.000E+00 0.276E-01 0.000E+00 0.000E+00 0.000E+00
BIGSUB   3        0   24.62454E+00 0.000E+00 0.000E+00 0.475E+01 0.189E+01 0.882E+02 0.000E+00 0.106E-05 0.944E-02 0.385E+00 0.918E-10 0.100E-08 0.100E-08 0.100E-08 0.101E-08 0.200E-08 0.373E+00 0.140E-03 0.296E-05 .61165E-21 0.000E+00 0.320E-01 0.000E+00 0.000E+00 0.000E+00
BIGSUB   4        0   24.44478E+00 0.000E+00 0.000E+00 0.475E+01 0.197E+01 0.823E+02 0.122E-01 0.307E-03 0.275E-02 0.341E+00 0.349E-09 0.999E-09 0.999E-09 0.570E-08 0.536E-07 0.200E-08 0.336E+00 0.120E-03 0.906E-06 .16166E-09 0.000E+00 0.284E-01 0.000E+00 0.000E+00 0.000E+00
BIGSUB   5        0   24.17237E+00 0.000E+00 0.000E+00 0.474E+01 0.217E+01 0.713E+02 0.437E-01 0.501E-02 0.519E-02 0.263E+00 0.658E-09 0.989E-09 0.989E-09 0.510E-07 0.818E-06 0.198E-08 0.250E+00 0.832E-04 0.110E-05 .18382E-08 0.000E+00 0.218E-01 0.000E+00 0.000E+00 0.000E+00
BIGSUB   1        0   25.11943E+00 0.660E+01 0.000E+00 0.538E+01 0.361E+01 0.892E+02 0.000E+00 0.783E-04 0.205E+00 0.185E+01 0.197E-09 0.999E-09 0.999E-09 0.214E-08 0.198E-07 0.200E-08 0.163E+01 0.154E-03 0.179E-04 .91315E-14 0.000E+00 0.151E+00 0.000E+00 0.000E+00 0.000E+00
BIGSUB   2        0   25.10671E+00 0.660E+01 0.000E+00 0.537E+01 0.364E+01 0.823E+02 0.149E-01 0.480E+00 0.000E+00 0.213E+01 0.375E-09 0.100E-08 0.100E-08 0.868E-05 0.790E-04 0.200E-08 0.165E+01 0.148E-03 0.100E-11 .34674E-06 0.000E+00 0.174E+00 0.000E+00 0.000E+00 0.000E+00
BIGSUB   3        0   25.62454E+00 0.660E+01 0.000E+00 0.538E+01 0.348E+01 0.887E+02 0.000E+00 0.490E-02 0.948E-02 0.188E+01 0.184E-02 0.289E-03 0.353E-04 0.242E-05 0.199E-06 0.300E-04 0.187E+01 0.304E-03 0.293E-05 .13385E-05 0.117E+00 0.154E+00 0.000E+00 0.000E+00 0.000E+00
BIGSUB   4        0   25.44478E+00 0.660E+01 0.000E+00 0.538E+01 0.360E+01 0.825E+02 0.114E-01 0.401E+00 0.276E-02 0.209E+01 0.993E-02 0.178E-02 0.218E-03 0.200E-04 0.623E-04 0.185E-03 0.169E+01 0.171E-03 0.897E-06 .86027E-05 0.647E+00 0.169E+00 0.000E+00 0.000E+00 0.000E+00
BIGSUB   5        0   25.17237E+00 0.660E+01 0.000E+00 0.537E+01 0.391E+01 0.709E+02 0.409E-01 0.128E+01 0.525E-02 0.254E+01 0.658E-09 0.989E-09 0.989E-09 0.232E-04 0.211E-03 0.198E-08 0.125E+01 0.113E-03 0.110E-05 .92592E-06 0.000E+00 0.208E+00 0.000E+00 0.000E+00 0.000E+00
BIGSUB   1        0   26.11943E+00 0.000E+00 0.000E+00 0.499E+01 0.209E+01 0.871E+02 0.000E+00 0.476E-04 0.211E+00 0.781E+00 0.197E-09 0.999E-09 0.999E-09 0.169E-08 0.123E-07 0.200E-08 0.561E+00 0.530E-04 0.182E-04 .20148E-14 0.000E+00 0.640E-01 0.000E+00 0.000E+00 0.000E+00
BIGSUB   2        0   26.10671E+00 0.000E+00 0.000E+00 0.498E+01 0.213E+01 0.801E+02 0.137E-01 0.276E-03 0.000E+00 0.569E+00 0.375E-09 0.100E-08 0.100E-08 0.592E-08 0.462E-07 0.200E-08 0.566E+00 0.509E-04 0.100E-11 .12369E-09 0.000E+00 0.465E-01 0.000E+00 0.000E+00 0.000E+00
BIGSUB   3        0   26.62454E+00 0.000E+00 0.000E+00 0.499E+01 0.202E+01 0.867E+02 0.000E+00 0.100E-05 0.950E-02 0.653E+00 0.918E-10 0.100E-08 0.100E-08 0.100E-08 0.100E-08 0.200E-08 0.641E+00 0.105E-03 0.289E-05 .19244E-21 0.000E+00 0.535E-01 0.000E+00 0.000E+00 0.000E+00
BIGSUB   4        0   26.44478E+00 0.000E+00 0.000E+00 0.498E+01 0.210E+01 0.804E+02 0.105E-01 0.124E-02 0.276E-02 0.585E+00 0.349E-09 0.999E-09 0.999E-09 0.339E-07 0.206E-06 0.200E-08 0.579E+00 0.589E-04 0.884E-06 .12952E-08 0.000E+00 0.479E-01 0.000E+00 0.000E+00 0.000E+00
BIGSUB   5        0   26.17237E+00 0.000E+00 0.000E+00 0.498E+01 0.232E+01 0.685E+02 0.377E-01 0.395E-01 0.531E-02 0.476E+00 0.658E-09 0.989E-09 0.989E-09 0.714E-06 0.650E-05 0.198E-08 0.428E+00 0.391E-04 0.110E-05 .28006E-07 0.000E+00 0.389E-01 0.000E+00 0.000E+00 0.000E+00
BIGSUB   1        0   27.11943E+00 0.840E+01 0.000E+00 0.500E+01 0.364E+01 0.888E+02 0.552E-03 0.291E-04 0.217E+00 0.245E+01 0.197E-09 0.999E-09 0.999E-09 0.141E-08 0.782E-08 0.200E-08 0.223E+01 0.140E-03 0.185E-04 .44398E-15 0.000E+00 0.201E+00 0.000E+00 0.000E+00 0.000E+00
BIGSUB   2        0   27.10671E+00 0.840E+01 0.000E+00 0.500E+01 0.358E+01 0.811E+02 0.127E-01 0.677E+00 0.000E+00 0.294E+01 0.375E-09 0.100E-08 0.100E-08 0.110E-04 0.112E-03 0.200E-08 0.226E+01 0.146E-03 0.100E-11 .43850E-06 0.000E+00 0.241E+00 0.000E+00 0.000E+00 0.000E+00
BIGSUB   3        0   27.62454E+00 0.840E+01 0.000E+00 0.501E+01 0.341E+01 0.881E+02 0.451E-03 0.327E-01 0.951E-02 0.260E+01 0.281E-02 0.646E-03 0.806E-04 0.262E-04 0.466E-05 0.680E-04 0.255E+01 0.308E-03 0.284E-05 .34785E-05 0.240E+00 0.212E+00 0.000E+00 0.000E+00 0.000E+00
BIGSUB   4        0   27.44478E+00 0.840E+01 0.000E+00 0.500E+01 0.353E+01 0.815E+02 0.985E-02 0.578E+00 0.276E-02 0.289E+01 0.149E-01 0.283E-02 0.346E-03 0.285E-04 0.886E-04 0.294E-03 0.231E+01 0.167E-03 0.868E-06 .21821E-04 0.132E+01 0.233E+00 0.000E+00 0.000E+00 0.000E+00
BIGSUB   5        0   27.17237E+00 0.840E+01 0.000E+00 0.500E+01 0.385E+01 0.688E+02 0.349E-01 0.181E+01 0.535E-02 0.353E+01 0.157E-04 0.541E-04 0.661E-05 0.295E-04 0.299E-03 0.521E-05 0.171E+01 0.111E-03 0.110E-05 .11783E-05 0.287E-03 0.289E+00 0.000E+00 0.000E+00 0.000E+00
BIGSUB   1        0   28.11943E+00 0.282E+02 0.000E+00 0.448E+01 0.382E+01 0.931E+02 0.311E-01 0.523E+01 0.221E+00 0.159E+02 0.509E+00 0.836E+00 0.102E+00 0.200E-03 0.269E-03 0.817E-01 0.105E+02 0.711E-02 0.186E-04 .36059E-02 0.448E+02 0.899E+00 0.000E+00 0.000E+00 0.000E+00
BIGSUB   2        0   28.10671E+00 0.282E+02 0.000E+00 0.448E+01 0.388E+01 0.844E+02 0.116E-01 0.753E+01 0.000E+00 0.171E+02 0.689E+00 0.822E+00 0.100E+00 0.201E-03 0.705E-03 0.808E-01 0.961E+01 0.557E-02 0.100E-11 .33796E-02 0.531E+02 0.106E+01 0.000E+00 0.000E+00 0.000E+00
BIGSUB   3        0   28.62454E+00 0.282E+02 0.000E+00 0.450E+01 0.377E+01 0.919E+02 0.280E-01 0.606E+01 0.954E-02 0.165E+02 0.101E+01 0.800E+00 0.980E-01 0.546E-03 0.532E-03 0.794E-01 0.104E+02 0.663E-02 0.282E-05 .35728E-02 0.728E+02 0.878E+00 0.000E+00 0.000E+00 0.000E+00
BIGSUB   4        0   28.44478E+00 0.282E+02 0.000E+00 0.448E+01 0.386E+01 0.849E+02 0.173E-01 0.739E+01 0.277E-02 0.171E+02 0.111E+01 0.884E+00 0.108E+00 0.267E-03 0.605E-03 0.873E-01 0.967E+01 0.568E-02 0.860E-06 .43876E-02 0.945E+02 0.101E+01 0.000E+00 0.000E+00 0.000E+00
BIGSUB   5        0   28.17237E+00 0.282E+02 0.000E+00 0.447E+01 0.402E+01 0.710E+02 0.412E-01 0.115E+02 0.539E-02 0.188E+02 0.492E+00 0.618E+00 0.755E-01 0.178E-03 0.149E-02 0.607E-01 0.727E+01 0.424E-02 0.109E-05 .26009E-02 0.387E+02 0.129E+01 0.000E+00 0.000E+00 0.000E+00
BIGSUB   1        0   29.11943E+00 0.709E+02 0.000E+00 0.324E+01 0.305E+01 0.941E+02 0.219E+01 0.358E+02 0.228E+00 0.586E+02 0.203E+01 0.446E+01 0.544E+00 0.399E-03 0.181E-02 0.436E+00 0.225E+02 0.355E-01 0.195E-04 .66731E-01 0.361E+03 0.192E+01 0.000E+00 0.000E+00 0.000E+00
BIGSUB   2        0   29.10671E+00 0.709E+02 0.000E+00 0.324E+01 0.307E+01 0.863E+02 0.630E+00 0.394E+02 0.000E+00 0.597E+02 0.277E+01 0.439E+01 0.537E+00 0.403E-03 0.276E-02 0.432E+00 0.204E+02 0.266E-01 0.100E-11 .64427E-01 0.436E+03 0.241E+01 0.000E+00 0.000E+00 0.000E+00
BIGSUB   3        0   29.62454E+00 0.709E+02 0.000E+00 0.325E+01 0.303E+01 0.940E+02 0.591E+00 0.376E+02 0.963E-02 0.593E+02 0.397E+01 0.418E+01 0.512E+00 0.980E-03 0.290E-02 0.414E+00 0.217E+02 0.288E-01 0.285E-05 .62105E-01 0.559E+03 0.184E+01 0.000E+00 0.000E+00 0.000E+00
BIGSUB   4        0   29.44478E+00 0.709E+02 0.000E+00 0.324E+01 0.306E+01 0.868E+02 0.603E+00 0.392E+02 0.280E-02 0.597E+02 0.398E+01 0.459E+01 0.561E+00 0.499E-03 0.245E-02 0.453E+00 0.204E+02 0.269E-01 0.868E-06 .68707E-01 0.592E+03 0.227E+01 0.000E+00 0.000E+00 0.000E+00
BIGSUB   5        0   29.17237E+00 0.709E+02 0.000E+00 0.324E+01 0.311E+01 0.724E+02 0.562E+00 0.457E+02 0.547E-02 0.611E+02 0.198E+01 0.329E+01 0.402E+00 0.331E-03 0.471E-02 0.323E+00 0.154E+02 0.202E-01 0.111E-05 .48599E-01 0.316E+03 0.315E+01 0.000E+00 0.000E+00 0.000E+00
BIGSUB   1        0   30.11943E+00 0.660E+01 0.000E+00 0.158E+01 0.157E+01 0.956E+02 0.895E-01 0.934E-02 0.234E+00 0.103E+02 0.197E-09 0.315E-04 0.385E-05 0.874E-07 0.229E-05 0.278E-05 0.100E+02 0.139E-01 0.201E-04 .42432E-07 0.000E+00 0.851E+00 0.000E+00 0.000E+00 0.000E+00
BIGSUB   2        0   30.10671E+00 0.660E+01 0.000E+00 0.158E+01 0.157E+01 0.877E+02 0.108E-01 0.485E+00 0.000E+00 0.953E+01 0.375E-09 0.100E-08 0.100E-08 0.695E-05 0.784E-04 0.200E-08 0.905E+01 0.100E-01 0.100E-11 .27767E-06 0.000E+00 0.791E+00 0.000E+00 0.000E+00 0.000E+00
BIGSUB   3        0   30.62454E+00 0.660E+01 0.000E+00 0.158E+01 0.155E+01 0.955E+02 0.804E-02 0.126E-01 0.970E-02 0.981E+01 0.918E-10 0.163E-03 0.200E-04 0.394E-05 0.163E-05 0.160E-04 0.979E+01 0.111E-01 0.286E-05 .35132E-06 0.718E-09 0.815E+00 0.000E+00 0.000E+00 0.000E+00
BIGSUB   4        0   30.44478E+00 0.660E+01 0.000E+00 0.158E+01 0.157E+01 0.882E+02 0.100E-01 0.429E+00 0.282E-02 0.954E+01 0.349E-09 0.578E-03 0.704E-04 0.155E-04 0.653E-04 0.600E-04 0.911E+01 0.102E-01 0.872E-06 .10298E-05 0.101E-08 0.792E+00 0.000E+00 0.000E+00 0.000E+00
BIGSUB   5        0   30.17237E+00 0.660E+01 0.000E+00 0.158E+01 0.157E+01 0.737E+02 0.332E-01 0.197E+01 0.554E-02 0.882E+01 0.658E-09 0.156E-08 0.106E-08 0.195E-04 0.320E-03 0.205E-08 0.684E+01 0.760E-02 0.113E-05 .77948E-06 0.000E+00 0.732E+00 0.000E+00 0.000E+00 0.000E+00
BIGSUB   1        0   31.11943E+00 0.381E+02 0.000E+00 0.112E+01 0.111E+01 0.961E+02 0.199E+01 0.119E+02 0.243E+00 0.304E+02 0.809E+00 0.134E+01 0.164E+00 0.118E-03 0.570E-03 0.131E+00 0.183E+02 0.313E-01 0.214E-04 .81468E-02 0.923E+02 0.156E+01 0.000E+00 0.000E+00 0.000E+00
BIGSUB   2        0   31.10671E+00 0.381E+02 0.000E+00 0.112E+01 0.112E+01 0.884E+02 0.930E+00 0.146E+02 0.000E+00 0.314E+02 0.111E+01 0.130E+01 0.159E+00 0.125E-03 0.113E-02 0.128E+00 0.167E+02 0.283E-01 0.100E-11 .76714E-02 0.112E+03 0.176E+01 0.000E+00 0.000E+00 0.000E+00
BIGSUB   3        0   31.62454E+00 0.381E+02 0.000E+00 0.112E+01 0.109E+01 0.959E+02 0.915E+00 0.131E+02 0.981E-02 0.313E+02 0.161E+01 0.120E+01 0.146E+00 0.445E-03 0.995E-03 0.119E+00 0.182E+02 0.309E-01 0.291E-05 .73087E-02 0.148E+03 0.153E+01 0.000E+00 0.000E+00 0.000E+00
BIGSUB   4        0   31.44478E+00 0.381E+02 0.000E+00 0.112E+01 0.112E+01 0.889E+02 0.883E+00 0.145E+02 0.285E-02 0.314E+02 0.170E+01 0.133E+01 0.162E+00 0.173E-03 0.978E-03 0.131E+00 0.169E+02 0.299E-01 0.884E-06 .83304E-02 0.174E+03 0.170E+01 0.000E+00 0.000E+00 0.000E+00
BIGSUB   5        0   31.17237E+00 0.381E+02 0.000E+00 0.112E+01 0.112E+01 0.747E+02 0.790E+00 0.192E+02 0.565E-02 0.319E+02 0.795E+00 0.980E+00 0.120E+00 0.112E-03 0.218E-02 0.963E-01 0.126E+02 0.213E-01 0.116E-05 .58738E-02 0.816E+02 0.201E+01 0.000E+00 0.000E+00 0.000E+00
BIGSUB   1        0   32.11943E+00 0.250E+01 0.000E+00 0.315E+01 0.299E+01 0.942E+02 0.792E-01 0.580E-02 0.250E+00 0.742E+01 0.197E-09 0.985E-05 0.120E-05 0.560E-07 0.144E-05 0.869E-06 0.715E+01 0.118E-01 0.224E-04 .22454E-08 0.000E+00 0.609E+00 0.000E+00 0.000E+00 0.000E+00
BIGSUB   2        0   32.10671E+00 0.250E+01 0.000E+00 0.315E+01 0.301E+01 0.865E+02 0.425E-01 0.909E-01 0.000E+00 0.663E+01 0.375E-09 0.100E-08 0.100E-08 0.158E-05 0.147E-04 0.200E-08 0.653E+01 0.106E-01 0.100E-11 .62905E-07 0.000E+00 0.544E+00 0.000E+00 0.000E+00 0.000E+00
BIGSUB   3        0   32.62454E+00 0.250E+01 0.000E+00 0.316E+01 0.297E+01 0.940E+02 0.345E-01 0.144E-02 0.990E-02 0.715E+01 0.918E-10 0.210E-04 0.257E-05 0.137E-07 0.321E-06 0.185E-05 0.714E+01 0.117E-01 0.293E-05 .19110E-07 0.000E+00 0.587E+00 0.000E+00 0.000E+00 0.000E+00
BIGSUB   4        0   32.44478E+00 0.250E+01 0.000E+00 0.315E+01 0.300E+01 0.871E+02 0.387E-01 0.818E-01 0.287E-02 0.669E+01 0.349E-09 0.262E-05 0.321E-06 0.166E-05 0.133E-04 0.232E-06 0.660E+01 0.112E-01 0.891E-06 .65896E-07 0.000E+00 0.549E+00 0.000E+00 0.000E+00 0.000E+00
BIGSUB   5        0   32.17237E+00 0.250E+01 0.000E+00 0.315E+01 0.304E+01 0.730E+02 0.576E-01 0.589E+00 0.573E-02 0.553E+01 0.658E-09 0.127E-08 0.102E-08 0.489E-05 0.954E-04 0.200E-08 0.493E+01 0.796E-02 0.119E-05 .19489E-06 0.000E+00 0.454E+00 0.000E+00 0.000E+00 0.000E+00
BIGSUB   1        0   33.11943E+00 0.580E+01 0.000E+00 0.842E+00 0.838E+00 0.964E+02 0.337E-01 0.327E-02 0.257E+00 0.455E+01 0.197E-09 0.407E-06 0.505E-07 0.323E-07 0.820E-06 0.377E-07 0.428E+01 0.493E-02 0.232E-04 .16558E-09 0.000E+00 0.376E+00 0.000E+00 0.000E+00 0.000E+00
BIGSUB   2        0   33.10671E+00 0.580E+01 0.000E+00 0.843E+00 0.839E+00 0.885E+02 0.110E-01 0.396E+00 0.000E+00 0.431E+01 0.375E-09 0.100E-08 0.100E-08 0.382E-05 0.643E-04 0.200E-08 0.391E+01 0.412E-02 0.100E-11 .15240E-06 0.000E+00 0.357E+00 0.000E+00 0.000E+00 0.000E+00
BIGSUB   3        0   33.62454E+00 0.580E+01 0.000E+00 0.840E+00 0.824E+00 0.961E+02 0.431E-02 0.380E-02 0.997E-02 0.437E+01 0.953E-03 0.918E-04 0.112E-04 0.569E-06 0.122E-06 0.964E-05 0.435E+01 0.475E-02 0.294E-05 .13506E-06 0.385E-01 0.361E+00 0.000E+00 0.000E+00 0.000E+00
BIGSUB   4        0   33.44478E+00 0.580E+01 0.000E+00 0.843E+00 0.839E+00 0.891E+02 0.965E-02 0.332E+00 0.290E-02 0.431E+01 0.515E-02 0.578E-03 0.705E-04 0.729E-05 0.510E-04 0.606E-04 0.397E+01 0.438E-02 0.893E-06 .10246E-05 0.212E+00 0.355E+00 0.000E+00 0.000E+00 0.000E+00
BIGSUB   5        0   33.17237E+00 0.580E+01 0.000E+00 0.844E+00 0.841E+00 0.749E+02 0.328E-01 0.110E+01 0.581E-02 0.407E+01 0.658E-09 0.989E-09 0.989E-09 0.104E-04 0.178E-03 0.198E-08 0.296E+01 0.311E-02 0.121E-05 .41440E-06 0.000E+00 0.337E+00 0.000E+00 0.000E+00 0.000E+00
BIGSUB   1        0   34.11943E+00 0.890E+01 0.000E+00 0.389E+01 0.345E+01 0.937E+02 0.640E+00 0.399E-02 0.263E+00 0.662E+01 0.604E-04 0.120E-03 0.147E-04 0.115E-06 0.585E-06 0.118E-04 0.634E+01 0.103E-01 0.241E-04 .49637E-10 0.667E-05 0.551E+00 0.000E+00 0.000E+00 0.000E+00
BIGSUB   2        0   34.10671E+00 0.890E+01 0.000E+00 0.389E+01 0.350E+01 0.862E+02 0.281E+00 0.734E+00 0.000E+00 0.651E+01 0.773E-04 0.108E-03 0.132E-04 0.445E-05 0.119E-03 0.106E-04 0.578E+01 0.908E-02 0.100E-11 .17460E-06 0.722E-05 0.542E+00 0.000E+00 0.000E+00 0.000E+00
BIGSUB   3        0   34.62454E+00 0.890E+01 0.000E+00 0.390E+01 0.343E+01 0.936E+02 0.281E+00 0.824E-01 0.100E-01 0.660E+01 0.232E-02 0.913E-03 0.116E-03 0.278E-04 0.116E-04 0.975E-04 0.651E+01 0.105E-01 0.295E-05 .13153E-05 0.148E+00 0.547E+00 0.000E+00 0.000E+00 0.000E+00
BIGSUB   4        0   34.44478E+00 0.890E+01 0.000E+00 0.389E+01 0.348E+01 0.867E+02 0.266E+00 0.646E+00 0.292E-02 0.653E+01 0.113E-01 0.196E-02 0.239E-03 0.139E-04 0.950E-04 0.205E-03 0.588E+01 0.998E-02 0.895E-06 .83382E-05 0.802E+00 0.538E+00 0.000E+00 0.000E+00 0.000E+00
BIGSUB   5        0   34.17237E+00 0.890E+01 0.000E+00 0.388E+01 0.359E+01 0.728E+02 0.259E+00 0.200E+01 0.589E-02 0.637E+01 0.937E-04 0.207E-03 0.253E-04 0.122E-04 0.324E-03 0.201E-04 0.437E+01 0.685E-02 0.123E-05 .49060E-06 0.717E-03 0.530E+00 0.000E+00 0.000E+00 0.000E+00
BIGSUB   1        0   35.11943E+00 0.241E+02 0.000E+00 0.361E+01 0.328E+01 0.939E+02 0.114E+01 0.386E+01 0.270E+00 0.166E+02 0.345E+00 0.524E+00 0.640E-01 0.664E-04 0.177E-03 0.512E-01 0.125E+02 0.191E-01 0.252E-04 .11318E-02 0.220E+02 0.106E+01 0.000E+00 0.000E+00 0.000E+00
BIGSUB   2        0   35.10671E+00 0.241E+02 0.000E+00 0.361E+01 0.332E+01 0.863E+02 0.495E+00 0.590E+01 0.000E+00 0.173E+02 0.476E+00 0.504E+00 0.616E-01 0.706E-04 0.545E-03 0.496E-01 0.114E+02 0.169E-01 0.100E-11 .10657E-02 0.268E+02 0.115E+01 0.000E+00 0.000E+00 0.000E+00
BIGSUB   3        0   35.62454E+00 0.241E+02 0.000E+00 0.362E+01 0.325E+01 0.938E+02 0.486E+00 0.459E+01 0.101E-01 0.171E+02 0.699E+00 0.466E+00 0.570E-01 0.259E-03 0.359E-03 0.463E-01 0.125E+02 0.188E-01 0.297E-05 .11032E-02 0.377E+02 0.104E+01 0.000E+00 0.000E+00 0.000E+00
BIGSUB   4        0   35.44478E+00 0.241E+02 0.000E+00 0.361E+01 0.330E+01 0.868E+02 0.471E+00 0.578E+01 0.294E-02 0.173E+02 0.775E+00 0.516E+00 0.630E-01 0.104E-03 0.460E-03 0.511E-01 0.115E+02 0.180E-01 0.900E-06 .13577E-02 0.524E+02 0.112E+01 0.000E+00 0.000E+00 0.000E+00
BIGSUB   5        0   35.17237E+00 0.241E+02 0.000E+00 0.361E+01 0.338E+01 0.728E+02 0.436E+00 0.935E+01 0.598E-02 0.179E+02 0.340E+00 0.382E+00 0.466E-01 0.655E-04 0.121E-02 0.375E-01 0.859E+01 0.128E-01 0.125E-05 .83466E-03 0.196E+02 0.127E+01 0.000E+00 0.000E+00 0.000E+00
BIGSUB   1        0   36.11943E+00 0.213E+02 0.000E+00 0.245E+01 0.243E+01 0.948E+02 0.104E+01 0.270E+01 0.278E+00 0.166E+02 0.197E-09 0.196E+00 0.240E-01 0.456E-04 0.122E-03 0.192E-01 0.136E+02 0.202E-01 0.265E-04 .20695E-03 0.456E-08 0.137E+01 0.000E+00 0.000E+00 0.000E+00
BIGSUB   2        0   36.10671E+00 0.213E+02 0.000E+00 0.245E+01 0.244E+01 0.871E+02 0.450E+00 0.455E+01 0.000E+00 0.170E+02 0.375E-09 0.188E+00 0.230E-01 0.501E-04 0.448E-03 0.185E-01 0.125E+02 0.179E-01 0.100E-11 .19351E-03 0.451E-08 0.140E+01 0.000E+00 0.000E+00 0.000E+00
BIGSUB   3        0   36.62454E+00 0.213E+02 0.000E+00 0.245E+01 0.240E+01 0.946E+02 0.443E+00 0.332E+01 0.102E-01 0.170E+02 0.918E-10 0.172E+00 0.211E-01 0.215E-03 0.264E-03 0.172E-01 0.137E+02 0.198E-01 0.301E-05 .21183E-03 0.661E-08 0.140E+01 0.000E+00 0.000E+00 0.000E+00
BIGSUB   4        0   36.44478E+00 0.213E+02 0.000E+00 0.245E+01 0.244E+01 0.877E+02 0.428E+00 0.444E+01 0.297E-02 0.170E+02 0.349E-09 0.193E+00 0.235E-01 0.792E-04 0.375E-03 0.191E-01 0.126E+02 0.190E-01 0.908E-06 .29750E-03 0.874E-08 0.140E+01 0.000E+00 0.000E+00 0.000E+00
BIGSUB   5        0   36.17237E+00 0.213E+02 0.000E+00 0.245E+01 0.244E+01 0.736E+02 0.398E+00 0.784E+01 0.609E-02 0.173E+02 0.658E-09 0.143E+00 0.174E-01 0.502E-04 0.105E-02 0.140E-01 0.942E+01 0.135E-01 0.129E-05 .15382E-03 0.185E-07 0.142E+01 0.000E+00 0.000E+00 0.000E+00
BIGSUB   1        0   37.11943E+00 0.330E+01 0.000E+00 0.179E+01 0.178E+01 0.953E+02 0.148E-02 0.156E-02 0.285E+00 0.565E+01 0.197E-09 0.168E-06 0.213E-07 0.260E-07 0.388E-06 0.167E-07 0.535E+01 0.696E-02 0.275E-04 .39174E-10 0.000E+00 0.473E+00 0.000E+00 0.000E+00 0.000E+00
BIGSUB   2        0   37.10671E+00 0.330E+01 0.000E+00 0.179E+01 0.178E+01 0.875E+02 0.110E-01 0.155E+00 0.000E+00 0.509E+01 0.375E-09 0.100E-08 0.100E-08 0.206E-05 0.251E-04 0.200E-08 0.493E+01 0.618E-02 0.100E-11 .82202E-07 0.000E+00 0.426E+00 0.000E+00 0.000E+00 0.000E+00
BIGSUB   3        0   37.62454E+00 0.330E+01 0.000E+00 0.179E+01 0.175E+01 0.950E+02 0.133E-02 0.628E-03 0.103E-01 0.545E+01 0.228E-04 0.488E-05 0.595E-06 0.712E-07 0.868E-07 0.475E-06 0.543E+01 0.686E-02 0.302E-05 .68735E-10 0.101E-03 0.456E+00 0.000E+00 0.000E+00 0.000E+00
BIGSUB   4        0   37.44478E+00 0.330E+01 0.000E+00 0.179E+01 0.178E+01 0.880E+02 0.882E-02 0.128E+00 0.299E-02 0.513E+01 0.123E-03 0.160E-04 0.195E-05 0.250E-05 0.206E-04 0.169E-05 0.499E+01 0.654E-02 0.911E-06 .84619E-07 0.555E-03 0.429E+00 0.000E+00 0.000E+00 0.000E+00
BIGSUB   5        0   37.17237E+00 0.330E+01 0.000E+00 0.179E+01 0.178E+01 0.739E+02 0.307E-01 0.608E+00 0.617E-02 0.435E+01 0.658E-09 0.102E-08 0.992E-09 0.600E-05 0.987E-04 0.198E-08 0.373E+01 0.466E-02 0.131E-05 .23943E-06 0.000E+00 0.364E+00 0.000E+00 0.000E+00 0.000E+00
BIGSUB   1        0   38.11943E+00 0.790E+01 0.000E+00 0.419E+01 0.381E+01 0.934E+02 0.410E+00 0.888E-03 0.291E+00 0.579E+01 0.197E-09 0.787E-08 0.184E-08 0.151E-07 0.223E-06 0.260E-08 0.549E+01 0.765E-02 0.284E-04 .95591E-11 0.000E+00 0.480E+00 0.000E+00 0.000E+00 0.000E+00
BIGSUB   2        0   38.10671E+00 0.790E+01 0.000E+00 0.418E+01 0.385E+01 0.857E+02 0.174E+00 0.622E+00 0.000E+00 0.560E+01 0.375E-09 0.100E-08 0.100E-08 0.985E-06 0.101E-03 0.200E-08 0.497E+01 0.650E-02 0.100E-11 .39319E-07 0.000E+00 0.464E+00 0.000E+00 0.000E+00 0.000E+00
BIGSUB   3        0   38.62454E+00 0.790E+01 0.000E+00 0.420E+01 0.382E+01 0.932E+02 0.176E+00 0.396E-01 0.104E-01 0.566E+01 0.241E-02 0.442E-03 0.562E-04 0.132E-04 0.508E-05 0.476E-04 0.561E+01 0.754E-02 0.303E-05 .78719E-06 0.156E+00 0.468E+00 0.000E+00 0.000E+00 0.000E+00
BIGSUB   4        0   38.44478E+00 0.790E+01 0.000E+00 0.419E+01 0.384E+01 0.863E+02 0.165E+00 0.540E+00 0.301E-02 0.560E+01 0.126E-01 0.126E-02 0.154E-03 0.909E-05 0.800E-04 0.133E-03 0.506E+01 0.702E-02 0.912E-06 .51169E-05 0.858E+00 0.460E+00 0.000E+00 0.000E+00 0.000E+00
BIGSUB   5        0   38.17237E+00 0.790E+01 0.000E+00 0.418E+01 0.393E+01 0.722E+02 0.170E+00 0.169E+01 0.626E-02 0.546E+01 0.170E-04 0.549E-04 0.671E-05 0.286E-05 0.275E-03 0.529E-05 0.376E+01 0.490E-02 0.133E-05 .11480E-06 0.160E-03 0.453E+00 0.000E+00 0.000E+00 0.000E+00
BIGSUB   1        0   39.11943E+00 0.706E+02 0.000E+00 0.247E+01 0.247E+01 0.947E+02 0.230E+01 0.357E+02 0.300E+00 0.568E+02 0.408E+01 0.576E+01 0.703E+00 0.426E-04 0.132E-02 0.563E+00 0.208E+02 0.249E-01 0.301E-04 .90844E-01 0.660E+03 0.178E+01 0.000E+00 0.000E+00 0.000E+00
BIGSUB   2        0   39.10671E+00 0.706E+02 0.000E+00 0.246E+01 0.246E+01 0.870E+02 0.103E+01 0.395E+02 0.000E+00 0.585E+02 0.562E+01 0.551E+01 0.673E+00 0.303E-04 0.221E-02 0.542E+00 0.190E+02 0.229E-01 0.100E-11 .85574E-01 0.808E+03 0.228E+01 0.000E+00 0.000E+00 0.000E+00
BIGSUB   3        0   39.62454E+00 0.706E+02 0.000E+00 0.247E+01 0.247E+01 0.946E+02 0.992E+00 0.377E+02 0.105E-01 0.581E+02 0.806E+01 0.499E+01 0.611E+00 0.201E-03 0.224E-02 0.496E+00 0.204E+02 0.242E-01 0.307E-05 .78471E-01 0.104E+04 0.172E+01 0.000E+00 0.000E+00 0.000E+00
BIGSUB   4        0   39.44478E+00 0.706E+02 0.000E+00 0.247E+01 0.246E+01 0.876E+02 0.975E+00 0.394E+02 0.305E-02 0.585E+02 0.819E+01 0.551E+01 0.673E+00 0.765E-04 0.190E-02 0.545E+00 0.191E+02 0.241E-01 0.923E-06 .86542E-01 0.112E+04 0.214E+01 0.000E+00 0.000E+00 0.000E+00
BIGSUB   5        0   39.17237E+00 0.706E+02 0.000E+00 0.246E+01 0.246E+01 0.734E+02 0.870E+00 0.455E+02 0.638E-02 0.599E+02 0.400E+01 0.416E+01 0.508E+00 0.271E-04 0.404E-02 0.409E+00 0.143E+02 0.172E-01 0.137E-05 .64966E-01 0.586E+03 0.303E+01 0.000E+00 0.000E+00 0.000E+00
BIGSUB   1        0   40.11943E+00 0.300E+00 0.000E+00 0.356E+01 0.246E+01 0.926E+02 0.533E-04 0.888E-02 0.307E+00 0.747E+01 0.895E-06 0.777E-04 0.949E-05 0.416E-07 0.211E-05 0.677E-05 0.714E+01 0.854E-02 0.315E-04 .43712E-06 0.000E+00 0.624E+00 0.000E+00 0.000E+00 0.000E+00
BIGSUB   2        0   40.10671E+00 0.300E+00 0.000E+00 0.355E+01 0.259E+01 0.847E+02 0.106E-01 0.462E-02 0.000E+00 0.654E+01 0.375E-09 0.100E-08 0.100E-08 0.175E-08 0.698E-06 0.200E-08 0.653E+01 0.786E-02 0.100E-11 .31974E-10 0.000E+00 0.546E+00 0.000E+00 0.000E+00 0.000E+00
BIGSUB   3        0   40.62454E+00 0.300E+00 0.000E+00 0.357E+01 0.247E+01 0.924E+02 0.295E-04 0.404E-02 0.106E-01 0.701E+01 0.918E-10 0.951E-04 0.116E-04 0.166E-07 0.866E-06 0.834E-05 0.699E+01 0.830E-02 0.309E-05 .30132E-06 0.000E+00 0.585E+00 0.000E+00 0.000E+00 0.000E+00
BIGSUB   4        0   40.44478E+00 0.300E+00 0.000E+00 0.356E+01 0.255E+01 0.854E+02 0.808E-02 0.232E-01 0.307E-02 0.659E+01 0.241E-06 0.208E-04 0.253E-05 0.190E-07 0.369E-05 0.181E-05 0.656E+01 0.829E-02 0.928E-06 .11932E-06 0.000E+00 0.550E+00 0.000E+00 0.000E+00 0.000E+00
BIGSUB   5        0   40.17237E+00 0.300E+00 0.000E+00 0.355E+01 0.282E+01 0.709E+02 0.291E-01 0.667E+00 0.647E-02 0.561E+01 0.658E-09 0.212E-08 0.113E-08 0.124E-06 0.101E-03 0.206E-08 0.493E+01 0.590E-02 0.140E-05 .49251E-08 0.000E+00 0.468E+00 0.000E+00 0.000E+00 0.000E+00
BIGSUB   1        0   41.11943E+00 0.000E+00 0.000E+00 0.240E+01 0.144E+01 0.911E+02 0.673E-07 0.467E-02 0.314E+00 0.278E+01 0.184E-06 0.204E-04 0.249E-05 0.230E-07 0.114E-05 0.176E-05 0.245E+01 0.293E-02 0.325E-04 .13845E-06 0.000E+00 0.229E+00 0.000E+00 0.000E+00 0.000E+00
BIGSUB   2        0   41.10671E+00 0.000E+00 0.000E+00 0.240E+01 0.156E+01 0.831E+02 0.982E-02 0.941E-05 0.000E+00 0.225E+01 0.375E-09 0.100E-08 0.100E-08 0.100E-08 0.224E-08 0.200E-08 0.224E+01 0.270E-02 0.100E-11 .23987E-13 0.000E+00 0.185E+00 0.000E+00 0.000E+00 0.000E+00
BIGSUB   3        0   41.62454E+00 0.000E+00 0.000E+00 0.240E+01 0.144E+01 0.909E+02 0.162E-07 0.539E-03 0.107E-01 0.242E+01 0.918E-10 0.843E-05 0.103E-05 0.316E-08 0.123E-06 0.736E-06 0.240E+01 0.285E-02 0.309E-05 .45267E-08 0.000E+00 0.199E+00 0.000E+00 0.000E+00 0.000E+00
BIGSUB   4        0   41.44478E+00 0.000E+00 0.000E+00 0.240E+01 0.152E+01 0.838E+02 0.749E-02 0.453E-02 0.309E-02 0.226E+01 0.497E-07 0.551E-05 0.673E-06 0.807E-08 0.800E-06 0.476E-06 0.225E+01 0.285E-02 0.927E-06 .37227E-07 0.000E+00 0.187E+00 0.000E+00 0.000E+00 0.000E+00
BIGSUB   5        0   41.17237E+00 0.000E+00 0.000E+00 0.240E+01 0.176E+01 0.691E+02 0.271E-01 0.621E-01 0.655E-02 0.177E+01 0.658E-09 0.989E-09 0.989E-09 0.124E-07 0.939E-05 0.198E-08 0.169E+01 0.203E-02 0.142E-05 .46210E-09 0.000E+00 0.146E+00 0.000E+00 0.000E+00 0.000E+00
BIGSUB   1        0   42.11943E+00 0.000E+00 0.000E+00 0.292E+01 0.160E+01 0.895E+02 0.000E+00 0.279E-02 0.319E+00 0.118E+01 0.380E-07 0.112E-04 0.137E-05 0.142E-07 0.683E-06 0.964E-06 0.843E+00 0.101E-02 0.333E-04 .43967E-07 0.000E+00 0.972E-01 0.000E+00 0.000E+00 0.000E+00
BIGSUB   2        0   42.10671E+00 0.000E+00 0.000E+00 0.291E+01 0.169E+01 0.814E+02 0.930E-02 0.100E-05 0.000E+00 0.774E+00 0.375E-09 0.100E-08 0.100E-08 0.100E-08 0.100E-08 0.200E-08 0.771E+00 0.928E-03 0.100E-11 .17012E-17 0.000E+00 0.640E-01 0.000E+00 0.000E+00 0.000E+00
BIGSUB   3        0   42.62454E+00 0.000E+00 0.000E+00 0.292E+01 0.159E+01 0.894E+02 0.000E+00 0.999E-04 0.107E-01 0.839E+00 0.918E-10 0.119E-05 0.146E-06 0.140E-08 0.239E-07 0.105E-06 0.825E+00 0.980E-03 0.308E-05 .58833E-10 0.000E+00 0.694E-01 0.000E+00 0.000E+00 0.000E+00
BIGSUB   4        0   42.44478E+00 0.000E+00 0.000E+00 0.291E+01 0.166E+01 0.822E+02 0.709E-02 0.133E-02 0.311E-02 0.782E+00 0.105E-07 0.301E-05 0.368E-06 0.474E-08 0.271E-06 0.261E-06 0.774E+00 0.978E-03 0.922E-06 .11816E-07 0.000E+00 0.646E-01 0.000E+00 0.000E+00 0.000E+00
BIGSUB   5        0   42.17237E+00 0.000E+00 0.000E+00 0.291E+01 0.185E+01 0.672E+02 0.256E-01 0.627E-02 0.662E-02 0.599E+00 0.658E-09 0.989E-09 0.989E-09 0.206E-08 0.949E-06 0.198E-08 0.583E+00 0.698E-03 0.143E-05 .47130E-10 0.000E+00 0.495E-01 0.000E+00 0.000E+00 0.000E+00
BIGSUB   1        0   43.11943E+00 0.000E+00 0.000E+00 0.521E+01 0.224E+01 0.873E+02 0.000E+00 0.168E-02 0.324E+00 0.627E+00 0.795E-08 0.670E-05 0.819E-06 0.893E-08 0.412E-06 0.578E-06 0.290E+00 0.346E-03 0.338E-04 .12523E-07 0.000E+00 0.518E-01 0.000E+00 0.000E+00 0.000E+00
BIGSUB   2        0   43.10671E+00 0.000E+00 0.000E+00 0.520E+01 0.230E+01 0.791E+02 0.863E-02 0.100E-05 0.000E+00 0.268E+00 0.375E-09 0.100E-08 0.100E-08 0.100E-08 0.100E-08 0.200E-08 0.265E+00 0.319E-03 0.100E-11 .16747E-17 0.000E+00 0.222E-01 0.000E+00 0.000E+00 0.000E+00
BIGSUB   3        0   43.62454E+00 0.000E+00 0.000E+00 0.522E+01 0.222E+01 0.871E+02 0.000E+00 0.215E-04 0.108E-01 0.298E+00 0.918E-10 0.225E-06 0.284E-07 0.108E-08 0.578E-08 0.214E-07 0.284E+00 0.337E-03 0.305E-05 .63092E-12 0.000E+00 0.246E-01 0.000E+00 0.000E+00 0.000E+00
BIGSUB   4        0   43.44478E+00 0.000E+00 0.000E+00 0.520E+01 0.227E+01 0.799E+02 0.656E-02 0.558E-03 0.312E-02 0.273E+00 0.243E-08 0.180E-05 0.221E-06 0.317E-08 0.127E-06 0.157E-06 0.266E+00 0.336E-03 0.912E-06 .33644E-08 0.000E+00 0.226E-01 0.000E+00 0.000E+00 0.000E+00
BIGSUB   5        0   43.17237E+00 0.000E+00 0.000E+00 0.520E+01 0.242E+01 0.648E+02 0.238E-01 0.680E-03 0.667E-02 0.212E+00 0.658E-09 0.989E-09 0.989E-09 0.104E-08 0.104E-06 0.198E-08 0.201E+00 0.240E-03 0.143E-05 .50533E-11 0.000E+00 0.175E-01 0.000E+00 0.000E+00 0.000E+00
BIGSUB   1        0   44.11943E+00 0.000E+00 0.000E+00 0.478E+01 0.217E+01 0.851E+02 0.000E+00 0.101E-02 0.328E+00 0.440E+00 0.177E-08 0.404E-05 0.494E-06 0.578E-08 0.249E-06 0.349E-06 0.996E-01 0.119E-03 0.341E-04 .32765E-08 0.000E+00 0.359E-01 0.000E+00 0.000E+00 0.000E+00
BIGSUB   2        0   44.10671E+00 0.000E+00 0.000E+00 0.479E+01 0.223E+01 0.769E+02 0.744E-02 0.100E-05 0.000E+00 0.944E-01 0.375E-09 0.100E-08 0.100E-08 0.100E-08 0.100E-08 0.200E-08 0.909E-01 0.109E-03 0.100E-11 .16544E-17 0.000E+00 0.770E-02 0.000E+00 0.000E+00 0.000E+00
BIGSUB   3        0   44.62454E+00 0.000E+00 0.000E+00 0.478E+01 0.209E+01 0.850E+02 0.000E+00 0.538E-05 0.108E-01 0.112E+00 0.918E-10 0.478E-07 0.671E-08 0.102E-08 0.202E-08 0.604E-08 0.975E-01 0.116E-03 0.301E-05 .64707E-14 0.000E+00 0.910E-02 0.000E+00 0.000E+00 0.000E+00
BIGSUB   4        0   44.44478E+00 0.000E+00 0.000E+00 0.479E+01 0.218E+01 0.777E+02 0.563E-02 0.293E-03 0.312E-02 0.981E-01 0.770E-09 0.108E-05 0.133E-06 0.229E-08 0.705E-07 0.952E-07 0.914E-01 0.115E-03 0.899E-06 .88015E-09 0.000E+00 0.800E-02 0.000E+00 0.000E+00 0.000E+00
BIGSUB   5        0   44.17237E+00 0.000E+00 0.000E+00 0.479E+01 0.233E+01 0.624E+02 0.205E-01 0.800E-04 0.671E-02 0.796E-01 0.658E-09 0.989E-09 0.989E-09 0.990E-09 0.128E-07 0.198E-08 0.692E-01 0.827E-04 0.143E-05 .42573E-12 0.000E+00 0.649E-02 0.000E+00 0.000E+00 0.000E+00
BIGSUB   1        0   45.11943E+00 0.000E+00 0.000E+00 0.435E+01 0.207E+01 0.831E+02 0.000E+00 0.611E-03 0.331E+00 0.377E+00 0.493E-09 0.243E-05 0.298E-06 0.388E-08 0.150E-06 0.211E-06 0.343E-01 0.409E-04 0.342E-04 .80704E-09 0.000E+00 0.309E-01 0.000E+00 0.000E+00 0.000E+00
BIGSUB   2        0   45.10671E+00 0.000E+00 0.000E+00 0.436E+01 0.211E+01 0.748E+02 0.632E-02 0.100E-05 0.000E+00 0.348E-01 0.375E-09 0.100E-08 0.100E-08 0.100E-08 0.100E-08 0.200E-08 0.312E-01 0.376E-04 0.100E-11 .16698E-17 0.000E+00 0.285E-02 0.000E+00 0.000E+00 0.000E+00
BIGSUB   3        0   45.62454E+00 0.000E+00 0.000E+00 0.435E+01 0.195E+01 0.831E+02 0.000E+00 0.194E-05 0.108E-01 0.476E-01 0.918E-10 0.110E-07 0.222E-08 0.100E-08 0.122E-08 0.286E-08 0.336E-01 0.398E-04 0.296E-05 .65930E-16 0.000E+00 0.391E-02 0.000E+00 0.000E+00 0.000E+00
BIGSUB   4        0   45.44478E+00 0.000E+00 0.000E+00 0.436E+01 0.206E+01 0.757E+02 0.478E-02 0.169E-03 0.312E-02 0.381E-01 0.428E-09 0.654E-06 0.808E-07 0.177E-08 0.417E-07 0.582E-07 0.314E-01 0.397E-04 0.884E-06 .21676E-09 0.000E+00 0.312E-02 0.000E+00 0.000E+00 0.000E+00
BIGSUB   5        0   45.17237E+00 0.000E+00 0.000E+00 0.436E+01 0.218E+01 0.602E+02 0.174E-01 0.108E-04 0.673E-02 0.343E-01 0.658E-09 0.989E-09 0.989E-09 0.989E-09 0.239E-08 0.198E-08 0.239E-01 0.285E-04 0.141E-05 .35702E-13 0.000E+00 0.281E-02 0.000E+00 0.000E+00 0.000E+00
BIGSUB   1        0   46.11943E+00 0.000E+00 0.000E+00 0.394E+01 0.192E+01 0.811E+02 0.000E+00 0.369E-03 0.333E+00 0.357E+00 0.232E-09 0.147E-05 0.180E-06 0.274E-08 0.910E-07 0.128E-06 0.118E-01 0.141E-04 0.341E-04 .19097E-09 0.000E+00 0.296E-01 0.000E+00 0.000E+00 0.000E+00
BIGSUB   2        0   46.10671E+00 0.000E+00 0.000E+00 0.393E+01 0.195E+01 0.728E+02 0.529E-02 0.100E-05 0.000E+00 0.143E-01 0.375E-09 0.100E-08 0.100E-08 0.100E-08 0.100E-08 0.200E-08 0.107E-01 0.129E-04 0.100E-11 .18787E-17 0.000E+00 0.119E-02 0.000E+00 0.000E+00 0.000E+00
BIGSUB   3        0   46.62454E+00 0.000E+00 0.000E+00 0.394E+01 0.179E+01 0.813E+02 0.000E+00 0.120E-05 0.108E-01 0.257E-01 0.918E-10 0.317E-08 0.126E-08 0.100E-08 0.105E-08 0.219E-08 0.116E-01 0.137E-04 0.290E-05 .11132E-17 0.000E+00 0.213E-02 0.000E+00 0.000E+00 0.000E+00
BIGSUB   4        0   46.44478E+00 0.000E+00 0.000E+00 0.394E+01 0.190E+01 0.738E+02 0.400E-02 0.101E-03 0.311E-02 0.174E-01 0.358E-09 0.395E-06 0.491E-07 0.147E-08 0.253E-07 0.359E-07 0.108E-01 0.136E-04 0.866E-06 .51285E-10 0.000E+00 0.145E-02 0.000E+00 0.000E+00 0.000E+00
BIGSUB   5        0   46.17237E+00 0.000E+00 0.000E+00 0.393E+01 0.200E+01 0.582E+02 0.146E-01 0.220E-05 0.674E-02 0.187E-01 0.658E-09 0.989E-09 0.989E-09 0.989E-09 0.114E-08 0.198E-08 0.831E-02 0.986E-05 0.139E-05 .12157E-14 0.000E+00 0.155E-02 0.000E+00 0.000E+00 0.000E+00
BIGSUB   1        0   47.11943E+00 0.000E+00 0.000E+00 0.489E+01 0.254E+01 0.786E+02 0.000E+00 0.223E-03 0.335E+00 0.351E+00 0.197E-09 0.885E-06 0.109E-06 0.205E-08 0.552E-07 0.780E-07 0.412E-02 0.488E-05 0.338E-04 .44063E-10 0.000E+00 0.291E-01 0.000E+00 0.000E+00 0.000E+00
BIGSUB   2        0   47.10671E+00 0.000E+00 0.000E+00 0.488E+01 0.256E+01 0.703E+02 0.437E-02 0.100E-05 0.000E+00 0.731E-02 0.375E-09 0.100E-08 0.100E-08 0.100E-08 0.100E-08 0.200E-08 0.369E-02 0.444E-05 0.100E-11 .26892E-17 0.000E+00 0.607E-03 0.000E+00 0.000E+00 0.000E+00
BIGSUB   3        0   47.62454E+00 0.000E+00 0.000E+00 0.490E+01 0.237E+01 0.789E+02 0.000E+00 0.104E-05 0.107E-01 0.181E-01 0.918E-10 0.147E-08 0.106E-08 0.100E-08 0.101E-08 0.204E-08 0.405E-02 0.475E-05 0.283E-05 .21968E-17 0.000E+00 0.151E-02 0.000E+00 0.000E+00 0.000E+00
BIGSUB   4        0   47.44478E+00 0.000E+00 0.000E+00 0.488E+01 0.250E+01 0.713E+02 0.330E-02 0.607E-04 0.310E-02 0.104E-01 0.349E-09 0.238E-06 0.300E-07 0.128E-08 0.156E-07 0.224E-07 0.373E-02 0.469E-05 0.846E-06 .11833E-10 0.000E+00 0.860E-03 0.000E+00 0.000E+00 0.000E+00
BIGSUB   5        0   47.17237E+00 0.000E+00 0.000E+00 0.487E+01 0.259E+01 0.556E+02 0.121E-01 0.114E-05 0.674E-02 0.134E-01 0.658E-09 0.989E-09 0.989E-09 0.989E-09 0.100E-08 0.198E-08 0.292E-02 0.343E-05 0.137E-05 .34148E-16 0.000E+00 0.111E-02 0.000E+00 0.000E+00 0.000E+00
BIGSUB   1        0   48.11943E+00 0.000E+00 0.000E+00 0.255E+01 0.172E+01 0.769E+02 0.000E+00 0.135E-03 0.336E+00 0.349E+00 0.197E-09 0.534E-06 0.661E-07 0.163E-08 0.337E-07 0.478E-07 0.147E-02 0.171E-05 0.334E-04 .10014E-10 0.000E+00 0.286E-01 0.000E+00 0.000E+00 0.000E+00
BIGSUB   2        0   48.10671E+00 0.000E+00 0.000E+00 0.256E+01 0.170E+01 0.686E+02 0.323E-02 0.100E-05 0.000E+00 0.492E-02 0.375E-09 0.100E-08 0.100E-08 0.100E-08 0.100E-08 0.200E-08 0.127E-02 0.152E-05 0.100E-11 .41069E-17 0.000E+00 0.403E-03 0.000E+00 0.000E+00 0.000E+00
BIGSUB   3        0   48.62454E+00 0.000E+00 0.000E+00 0.255E+01 0.155E+01 0.774E+02 0.000E+00 0.101E-05 0.107E-01 0.155E-01 0.918E-10 0.110E-08 0.101E-08 0.100E-08 0.100E-08 0.201E-08 0.144E-02 0.167E-05 0.276E-05 .76429E-17 0.000E+00 0.127E-02 0.000E+00 0.000E+00 0.000E+00
BIGSUB   4        0   48.44478E+00 0.000E+00 0.000E+00 0.256E+01 0.165E+01 0.696E+02 0.243E-02 0.369E-04 0.309E-02 0.792E-02 0.349E-09 0.144E-06 0.185E-07 0.117E-08 0.978E-08 0.143E-07 0.130E-02 0.162E-05 0.824E-06 .26891E-11 0.000E+00 0.649E-03 0.000E+00 0.000E+00 0.000E+00
BIGSUB   5        0   48.17237E+00 0.000E+00 0.000E+00 0.256E+01 0.165E+01 0.539E+02 0.890E-02 0.100E-05 0.673E-02 0.115E-01 0.658E-09 0.989E-09 0.989E-09 0.989E-09 0.989E-09 0.198E-08 0.104E-02 0.120E-05 0.134E-05 .63200E-17 0.000E+00 0.942E-03 0.000E+00 0.000E+00 0.000E+00
BIGSUB   1        0   49.11943E+00 0.000E+00 0.000E+00 0.355E+01 0.236E+01 0.745E+02 0.000E+00 0.816E-04 0.336E+00 0.349E+00 0.197E-09 0.322E-06 0.402E-07 0.138E-08 0.207E-07 0.296E-07 0.549E-03 0.463E-07 0.329E-04 .22564E-11 0.000E+00 0.283E-01 0.000E+00 0.000E+00 0.000E+00
BIGSUB   2        0   49.10671E+00 0.000E+00 0.000E+00 0.355E+01 0.232E+01 0.662E+02 0.260E-02 0.100E-05 0.000E+00 0.413E-02 0.375E-09 0.100E-08 0.100E-08 0.100E-08 0.100E-08 0.200E-08 0.443E-03 0.000E+00 0.100E-11 .52597E-17 0.000E+00 0.335E-03 0.000E+00 0.000E+00 0.000E+00
BIGSUB   3        0   49.62454E+00 0.000E+00 0.000E+00 0.355E+01 0.213E+01 0.753E+02 0.000E+00 0.100E-05 0.106E-01 0.146E-01 0.918E-10 0.102E-08 0.100E-08 0.100E-08 0.100E-08 0.200E-08 0.545E-03 0.521E-07 0.269E-05 .26898E-16 0.000E+00 0.118E-02 0.000E+00 0.000E+00 0.000E+00
BIGSUB   4        0   49.44478E+00 0.000E+00 0.000E+00 0.355E+01 0.226E+01 0.673E+02 0.196E-02 0.226E-04 0.307E-02 0.708E-02 0.349E-09 0.873E-07 0.115E-07 0.110E-08 0.629E-08 0.942E-08 0.464E-03 0.171E-07 0.802E-06 .60600E-12 0.000E+00 0.575E-03 0.000E+00 0.000E+00 0.000E+00
BIGSUB   5        0   49.17237E+00 0.000E+00 0.000E+00 0.356E+01 0.226E+01 0.517E+02 0.716E-02 0.989E-06 0.671E-02 0.109E-01 0.658E-09 0.989E-09 0.989E-09 0.989E-09 0.989E-09 0.198E-08 0.384E-03 0.331E-07 0.131E-05 .64257E-17 0.000E+00 0.883E-03 0.000E+00 0.000E+00 0.000E+00
BIGSUB   1        0   50.11943E+00 0.000E+00 0.000E+00 0.375E+01 0.226E+01 0.723E+02 0.000E+00 0.496E-04 0.336E+00 0.348E+00 0.197E-09 0.195E-06 0.246E-07 0.123E-08 0.129E-07 0.186E-07 0.229E-03 0.416E-07 0.323E-04 .50607E-12 0.000E+00 0.286E-01 0.000E+00 0.000E+00 0.000E+00
BIGSUB   2        0   50.10671E+00 0.000E+00 0.000E+00 0.375E+01 0.224E+01 0.640E+02 0.173E-02 0.100E-05 0.000E+00 0.388E-02 0.375E-09 0.100E-08 0.100E-08 0.100E-08 0.100E-08 0.200E-08 0.158E-03 0.000E+00 0.100E-11 .57902E-17 0.000E+00 0.318E-03 0.000E+00 0.000E+00 0.000E+00
BIGSUB   3        0   50.62454E+00 0.000E+00 0.000E+00 0.376E+01 0.206E+01 0.732E+02 0.000E+00 0.100E-05 0.105E-01 0.142E-01 0.918E-10 0.100E-08 0.100E-08 0.100E-08 0.100E-08 0.200E-08 0.231E-03 0.454E-07 0.261E-05 .12384E-16 0.000E+00 0.117E-02 0.000E+00 0.000E+00 0.000E+00
BIGSUB   4        0   50.44478E+00 0.000E+00 0.000E+00 0.375E+01 0.219E+01 0.651E+02 0.131E-02 0.140E-04 0.305E-02 0.679E-02 0.349E-09 0.530E-07 0.735E-08 0.106E-08 0.419E-08 0.647E-08 0.175E-03 0.103E-07 0.778E-06 .13590E-12 0.000E+00 0.557E-03 0.000E+00 0.000E+00 0.000E+00
BIGSUB   5        0   50.17237E+00 0.000E+00 0.000E+00 0.375E+01 0.222E+01 0.495E+02 0.478E-02 0.989E-06 0.669E-02 0.106E-01 0.658E-09 0.989E-09 0.989E-09 0.989E-09 0.989E-09 0.198E-08 0.151E-03 0.194E-07 0.128E-05 .67223E-17 0.000E+00 0.872E-03 0.000E+00 0.000E+00 0.000E+00
BIGSUB   1        0   51.11943E+00 0.000E+00 0.000E+00 0.390E+01 0.216E+01 0.701E+02 0.000E+00 0.303E-04 0.336E+00 0.347E+00 0.197E-09 0.118E-06 0.153E-07 0.114E-08 0.816E-08 0.120E-07 0.115E-03 0.374E-07 0.316E-04 .11327E-12 0.000E+00 0.287E-01 0.000E+00 0.000E+00 0.000E+00
BIGSUB   2        0   51.10671E+00 0.000E+00 0.000E+00 0.389E+01 0.216E+01 0.618E+02 0.841E-03 0.100E-05 0.000E+00 0.381E-02 0.375E-09 0.100E-08 0.100E-08 0.100E-08 0.100E-08 0.200E-08 0.595E-04 0.000E+00 0.100E-11 .59446E-17 0.000E+00 0.315E-03 0.000E+00 0.000E+00 0.000E+00
BIGSUB   3        0   51.62454E+00 0.000E+00 0.000E+00 0.391E+01 0.199E+01 0.712E+02 0.000E+00 0.100E-05 0.105E-01 0.141E-01 0.918E-10 0.100E-08 0.100E-08 0.100E-08 0.100E-08 0.200E-08 0.119E-03 0.409E-07 0.253E-05 .13272E-16 0.000E+00 0.116E-02 0.000E+00 0.000E+00 0.000E+00
BIGSUB   4        0   51.44478E+00 0.000E+00 0.000E+00 0.389E+01 0.211E+01 0.630E+02 0.636E-03 0.886E-05 0.302E-02 0.669E-02 0.349E-09 0.324E-07 0.483E-08 0.104E-08 0.292E-08 0.469E-08 0.751E-04 0.929E-08 0.754E-06 .30420E-13 0.000E+00 0.553E-03 0.000E+00 0.000E+00 0.000E+00
BIGSUB   5        0   51.17237E+00 0.000E+00 0.000E+00 0.389E+01 0.216E+01 0.473E+02 0.232E-02 0.989E-06 0.665E-02 0.105E-01 0.658E-09 0.989E-09 0.989E-09 0.989E-09 0.989E-09 0.198E-08 0.674E-04 0.114E-07 0.125E-05 .67871E-17 0.000E+00 0.871E-03 0.000E+00 0.000E+00 0.000E+00
BIGSUB   1        0   52.11943E+00 0.000E+00 0.000E+00 0.482E+01 0.282E+01 0.673E+02 0.000E+00 0.187E-04 0.334E+00 0.346E+00 0.197E-09 0.714E-07 0.959E-08 0.108E-08 0.532E-08 0.805E-08 0.724E-04 0.336E-07 0.308E-04 .25334E-13 0.000E+00 0.282E-01 0.000E+00 0.000E+00 0.000E+00
BIGSUB   2        0   52.10671E+00 0.000E+00 0.000E+00 0.482E+01 0.261E+01 0.592E+02 0.000E+00 0.100E-05 0.000E+00 0.380E-02 0.375E-09 0.100E-08 0.100E-08 0.100E-08 0.100E-08 0.200E-08 0.258E-04 0.000E+00 0.100E-11 .59488E-17 0.000E+00 0.310E-03 0.000E+00 0.000E+00 0.000E+00
BIGSUB   3        0   52.62454E+00 0.000E+00 0.000E+00 0.482E+01 0.259E+01 0.686E+02 0.000E+00 0.100E-05 0.104E-01 0.140E-01 0.918E-10 0.100E-08 0.100E-08 0.100E-08 0.100E-08 0.200E-08 0.767E-04 0.368E-07 0.245E-05 .13382E-16 0.000E+00 0.114E-02 0.000E+00 0.000E+00 0.000E+00
BIGSUB   4        0   52.44478E+00 0.000E+00 0.000E+00 0.482E+01 0.258E+01 0.605E+02 0.000E+00 0.574E-05 0.300E-02 0.666E-02 0.349E-09 0.199E-07 0.331E-08 0.102E-08 0.216E-08 0.362E-08 0.397E-04 0.835E-08 0.729E-06 .68089E-14 0.000E+00 0.542E-03 0.000E+00 0.000E+00 0.000E+00
BIGSUB   5        0   52.17237E+00 0.000E+00 0.000E+00 0.482E+01 0.225E+01 0.450E+02 0.000E+00 0.989E-06 0.661E-02 0.105E-01 0.658E-09 0.989E-09 0.989E-09 0.989E-09 0.989E-09 0.198E-08 0.361E-04 0.667E-08 0.121E-05 .67626E-17 0.000E+00 0.854E-03 0.000E+00 0.000E+00 0.000E+00
BIGSUB   1        0   53.11943E+00 0.000E+00 0.000E+00 0.438E+01 0.265E+01 0.646E+02 0.000E+00 0.116E-04 0.333E+00 0.345E+00 0.197E-09 0.434E-07 0.618E-08 0.105E-08 0.360E-08 0.565E-08 0.544E-04 0.302E-07 0.300E-04 .56676E-14 0.000E+00 0.282E-01 0.000E+00 0.000E+00 0.000E+00
BIGSUB   2        0   53.10671E+00 0.000E+00 0.000E+00 0.438E+01 0.234E+01 0.569E+02 0.000E+00 0.100E-05 0.000E+00 0.382E-02 0.375E-09 0.100E-08 0.100E-08 0.100E-08 0.100E-08 0.200E-08 0.142E-04 0.000E+00 0.100E-11 .59041E-17 0.000E+00 0.312E-03 0.000E+00 0.000E+00 0.000E+00
BIGSUB   3        0   53.62454E+00 0.000E+00 0.000E+00 0.439E+01 0.246E+01 0.662E+02 0.000E+00 0.100E-05 0.103E-01 0.139E-01 0.918E-10 0.100E-08 0.100E-08 0.100E-08 0.100E-08 0.200E-08 0.585E-04 0.331E-07 0.237E-05 .13222E-16 0.000E+00 0.113E-02 0.000E+00 0.000E+00 0.000E+00
BIGSUB   4        0   53.44478E+00 0.000E+00 0.000E+00 0.438E+01 0.234E+01 0.581E+02 0.000E+00 0.386E-05 0.297E-02 0.664E-02 0.349E-09 0.124E-07 0.239E-08 0.101E-08 0.170E-08 0.298E-08 0.268E-04 0.750E-08 0.704E-06 .15282E-14 0.000E+00 0.542E-03 0.000E+00 0.000E+00 0.000E+00
BIGSUB   5        0   53.17237E+00 0.000E+00 0.000E+00 0.437E+01 0.180E+01 0.432E+02 0.000E+00 0.989E-06 0.656E-02 0.105E-01 0.658E-09 0.989E-09 0.989E-09 0.989E-09 0.989E-09 0.198E-08 0.239E-04 0.391E-08 0.117E-05 .67114E-17 0.000E+00 0.854E-03 0.000E+00 0.000E+00 0.000E+00
BIGSUB   1        0   54.11943E+00 0.000E+00 0.000E+00 0.490E+01 0.288E+01 0.618E+02 0.000E+00 0.741E-05 0.331E+00 0.343E+00 0.197E-09 0.266E-07 0.412E-08 0.103E-08 0.257E-08 0.420E-08 0.452E-04 0.271E-07 0.291E-04 .12688E-14 0.000E+00 0.282E-01 0.000E+00 0.000E+00 0.000E+00
BIGSUB   2        0   54.10671E+00 0.000E+00 0.000E+00 0.490E+01 0.253E+01 0.544E+02 0.000E+00 0.100E-05 0.000E+00 0.384E-02 0.375E-09 0.100E-08 0.100E-08 0.100E-08 0.100E-08 0.200E-08 0.103E-04 0.000E+00 0.100E-11 .58478E-17 0.000E+00 0.315E-03 0.000E+00 0.000E+00 0.000E+00
BIGSUB   3        0   54.62454E+00 0.000E+00 0.000E+00 0.491E+01 0.269E+01 0.635E+02 0.000E+00 0.100E-05 0.102E-01 0.138E-01 0.918E-10 0.100E-08 0.100E-08 0.100E-08 0.100E-08 0.200E-08 0.491E-04 0.298E-07 0.228E-05 .12988E-16 0.000E+00 0.113E-02 0.000E+00 0.000E+00 0.000E+00
BIGSUB   4        0   54.44478E+00 0.000E+00 0.000E+00 0.490E+01 0.254E+01 0.556E+02 0.000E+00 0.272E-05 0.294E-02 0.662E-02 0.349E-09 0.787E-08 0.184E-08 0.101E-08 0.142E-08 0.259E-08 0.215E-04 0.674E-08 0.679E-06 .34705E-15 0.000E+00 0.543E-03 0.000E+00 0.000E+00 0.000E+00
BIGSUB   5        0   54.17237E+00 0.000E+00 0.000E+00 0.489E+01 0.193E+01 0.413E+02 0.000E+00 0.989E-06 0.651E-02 0.104E-01 0.658E-09 0.989E-09 0.989E-09 0.989E-09 0.989E-09 0.198E-08 0.189E-04 0.229E-08 0.113E-05 .66562E-17 0.000E+00 0.855E-03 0.000E+00 0.000E+00 0.000E+00
BIGSUB   1        0   55.11943E+00 0.000E+00 0.000E+00 0.411E+01 0.267E+01 0.591E+02 0.000E+00 0.487E-05 0.329E+00 0.341E+00 0.197E-09 0.164E-07 0.288E-08 0.102E-08 0.195E-08 0.332E-08 0.386E-04 0.244E-07 0.282E-04 .28434E-15 0.000E+00 0.280E-01 0.000E+00 0.000E+00 0.000E+00
BIGSUB   2        0   55.10671E+00 0.000E+00 0.000E+00 0.410E+01 0.235E+01 0.520E+02 0.000E+00 0.100E-05 0.000E+00 0.386E-02 0.375E-09 0.100E-08 0.100E-08 0.100E-08 0.100E-08 0.200E-08 0.817E-05 0.000E+00 0.100E-11 .57940E-17 0.000E+00 0.317E-03 0.000E+00 0.000E+00 0.000E+00
BIGSUB   3        0   55.62454E+00 0.000E+00 0.000E+00 0.412E+01 0.252E+01 0.609E+02 0.000E+00 0.100E-05 0.101E-01 0.137E-01 0.918E-10 0.100E-08 0.100E-08 0.100E-08 0.100E-08 0.200E-08 0.421E-04 0.268E-07 0.220E-05 .12756E-16 0.000E+00 0.112E-02 0.000E+00 0.000E+00 0.000E+00
BIGSUB   4        0   55.44478E+00 0.000E+00 0.000E+00 0.411E+01 0.235E+01 0.532E+02 0.000E+00 0.204E-05 0.291E-02 0.660E-02 0.349E-09 0.514E-08 0.150E-08 0.100E-08 0.125E-08 0.235E-08 0.184E-04 0.606E-08 0.654E-06 .82645E-16 0.000E+00 0.542E-03 0.000E+00 0.000E+00 0.000E+00
BIGSUB   5        0   55.17237E+00 0.000E+00 0.000E+00 0.410E+01 0.178E+01 0.395E+02 0.000E+00 0.989E-06 0.645E-02 0.104E-01 0.658E-09 0.989E-09 0.989E-09 0.989E-09 0.989E-09 0.198E-08 0.161E-04 0.134E-08 0.109E-05 .66055E-17 0.000E+00 0.852E-03 0.000E+00 0.000E+00 0.000E+00
BIGSUB   1        0   56.11943E+00 0.000E+00 0.000E+00 0.515E+01 0.301E+01 0.561E+02 0.000E+00 0.333E-05 0.326E+00 0.338E+00 0.197E-09 0.103E-07 0.213E-08 0.101E-08 0.157E-08 0.280E-08 0.347E-04 0.219E-07 0.273E-04 .63791E-16 0.000E+00 0.276E-01 0.000E+00 0.000E+00 0.000E+00
BIGSUB   2        0   56.10671E+00 0.000E+00 0.000E+00 0.514E+01 0.264E+01 0.494E+02 0.000E+00 0.100E-05 0.000E+00 0.388E-02 0.375E-09 0.100E-08 0.100E-08 0.100E-08 0.100E-08 0.200E-08 0.817E-05 0.000E+00 0.100E-11 .57420E-17 0.000E+00 0.316E-03 0.000E+00 0.000E+00 0.000E+00
BIGSUB   3        0   56.62454E+00 0.000E+00 0.000E+00 0.516E+01 0.284E+01 0.581E+02 0.000E+00 0.100E-05 0.993E-02 0.136E-01 0.918E-10 0.100E-08 0.100E-08 0.100E-08 0.100E-08 0.200E-08 0.379E-04 0.242E-07 0.212E-05 .12524E-16 0.000E+00 0.110E-02 0.000E+00 0.000E+00 0.000E+00
BIGSUB   4        0   56.44478E+00 0.000E+00 0.000E+00 0.515E+01 0.264E+01 0.506E+02 0.000E+00 0.163E-05 0.287E-02 0.659E-02 0.349E-09 0.350E-08 0.130E-08 0.100E-08 0.115E-08 0.221E-08 0.174E-04 0.544E-08 0.630E-06 .23366E-16 0.000E+00 0.536E-03 0.000E+00 0.000E+00 0.000E+00
BIGSUB   5        0   56.17237E+00 0.000E+00 0.000E+00 0.514E+01 0.201E+01 0.375E+02 0.000E+00 0.989E-06 0.638E-02 0.103E-01 0.658E-09 0.989E-09 0.989E-09 0.989E-09 0.989E-09 0.198E-08 0.154E-04 0.000E+00 0.105E-05 .65586E-17 0.000E+00 0.841E-03 0.000E+00 0.000E+00 0.000E+00
BIGSUB   1        0   57.11943E+00 0.000E+00 0.000E+00 0.519E+01 0.310E+01 0.530E+02 0.000E+00 0.240E-05 0.324E+00 0.336E+00 0.197E-09 0.660E-08 0.168E-08 0.101E-08 0.134E-08 0.248E-08 0.311E-04 0.197E-07 0.264E-04 .14328E-16 0.000E+00 0.273E-01 0.000E+00 0.000E+00 0.000E+00
BIGSUB   2        0   57.10671E+00 0.000E+00 0.000E+00 0.519E+01 0.272E+01 0.466E+02 0.000E+00 0.100E-05 0.000E+00 0.389E-02 0.375E-09 0.100E-08 0.100E-08 0.100E-08 0.100E-08 0.200E-08 0.817E-05 0.000E+00 0.100E-11 .56963E-17 0.000E+00 0.316E-03 0.000E+00 0.000E+00 0.000E+00
BIGSUB   3        0   57.62454E+00 0.000E+00 0.000E+00 0.520E+01 0.292E+01 0.552E+02 0.000E+00 0.100E-05 0.981E-02 0.135E-01 0.918E-10 0.100E-08 0.100E-08 0.100E-08 0.100E-08 0.200E-08 0.342E-04 0.218E-07 0.203E-05 .12316E-16 0.000E+00 0.109E-02 0.000E+00 0.000E+00 0.000E+00
BIGSUB   4        0   57.44478E+00 0.000E+00 0.000E+00 0.519E+01 0.272E+01 0.479E+02 0.000E+00 0.138E-05 0.283E-02 0.656E-02 0.349E-09 0.250E-08 0.118E-08 0.100E-08 0.109E-08 0.213E-08 0.166E-04 0.489E-08 0.605E-06 .10032E-16 0.000E+00 0.533E-03 0.000E+00 0.000E+00 0.000E+00
BIGSUB   5        0   57.17237E+00 0.000E+00 0.000E+00 0.519E+01 0.207E+01 0.355E+02 0.000E+00 0.989E-06 0.631E-02 0.103E-01 0.658E-09 0.989E-09 0.989E-09 0.989E-09 0.989E-09 0.198E-08 0.150E-04 0.000E+00 0.101E-05 .65183E-17 0.000E+00 0.834E-03 0.000E+00 0.000E+00 0.000E+00
BIGSUB   1        0   58.11943E+00 0.000E+00 0.000E+00 0.479E+01 0.267E+01 0.503E+02 0.000E+00 0.185E-05 0.321E+00 0.333E+00 0.197E-09 0.438E-08 0.141E-08 0.100E-08 0.121E-08 0.229E-08 0.280E-04 0.177E-07 0.255E-04 .32225E-17 0.000E+00 0.274E-01 0.000E+00 0.000E+00 0.000E+00
BIGSUB   2        0   58.10671E+00 0.000E+00 0.000E+00 0.478E+01 0.234E+01 0.443E+02 0.000E+00 0.100E-05 0.000E+00 0.391E-02 0.375E-09 0.100E-08 0.100E-08 0.100E-08 0.100E-08 0.200E-08 0.817E-05 0.000E+00 0.100E-11 .56567E-17 0.000E+00 0.322E-03 0.000E+00 0.000E+00 0.000E+00
[...]
BIGSUB   4        0  352.44478E+00 0.445E+02 0.000E+00 0.447E+01 0.377E+01 0.750E+02 0.149E-01 0.159E+02 0.128E-02 0.333E+02 0.773E+00 0.744E+00 0.911E-01 0.628E-03 0.913E-03 0.711E-01 0.173E+02 0.417E-01 0.438E-06 .47358E-02 0.106E+03 0.171E+01 0.000E+00 0.000E+00 0.000E+00
BIGSUB   5        0  352.17237E+00 0.445E+02 0.000E+00 0.446E+01 0.395E+01 0.599E+02 0.401E-01 0.213E+02 0.896E-03 0.343E+02 0.318E+00 0.514E+00 0.628E-01 0.392E-03 0.224E-02 0.489E-01 0.130E+02 0.310E-01 0.160E-06 .33330E-02 0.434E+02 0.208E+01 0.000E+00 0.000E+00 0.000E+00
BIGSUB   1        0  353.11943E+00 0.500E+00 0.000E+00 0.416E+01 0.256E+01 0.913E+02 0.432E-04 0.438E-02 0.480E-02 0.609E+01 0.197E-09 0.603E-05 0.736E-06 0.866E-07 0.106E-05 0.513E-06 0.608E+01 0.151E-01 0.168E-05 .82212E-08 0.000E+00 0.498E+00 0.000E+00 0.000E+00 0.000E+00
BIGSUB   2        0  353.10671E+00 0.500E+00 0.000E+00 0.415E+01 0.268E+01 0.723E+02 0.360E-02 0.267E-02 0.000E+00 0.592E+01 0.375E-09 0.100E-08 0.100E-08 0.643E-08 0.415E-06 0.200E-08 0.592E+01 0.142E-01 0.100E-11 .21247E-09 0.000E+00 0.484E+00 0.000E+00 0.000E+00 0.000E+00
BIGSUB   3        0  353.62454E+00 0.500E+00 0.000E+00 0.418E+01 0.247E+01 0.777E+02 0.239E-04 0.181E-02 0.412E-02 0.653E+01 0.918E-10 0.950E-05 0.116E-05 0.250E-07 0.389E-06 0.808E-06 0.652E+01 0.158E-01 0.143E-05 .16373E-07 0.000E+00 0.535E+00 0.000E+00 0.000E+00 0.000E+00
BIGSUB   4        0  353.44478E+00 0.500E+00 0.000E+00 0.415E+01 0.262E+01 0.729E+02 0.274E-02 0.135E-01 0.129E-02 0.597E+01 0.349E-09 0.161E-05 0.197E-06 0.537E-07 0.220E-05 0.138E-06 0.596E+01 0.143E-01 0.453E-06 .36228E-08 0.000E+00 0.489E+00 0.000E+00 0.000E+00 0.000E+00
BIGSUB   5        0  353.17237E+00 0.500E+00 0.000E+00 0.414E+01 0.303E+01 0.574E+02 0.993E-02 0.392E+00 0.911E-03 0.486E+01 0.658E-09 0.113E-08 0.101E-08 0.862E-06 0.607E-04 0.199E-08 0.446E+01 0.107E-01 0.171E-06 .34409E-07 0.000E+00 0.398E+00 0.000E+00 0.000E+00 0.000E+00
BIGSUB   1        0  354.11943E+00 0.399E+02 0.000E+00 0.312E+01 0.296E+01 0.942E+02 0.130E+01 0.123E+02 0.490E-02 0.278E+02 0.622E+00 0.104E+01 0.127E+00 0.506E-03 0.436E-03 0.987E-01 0.155E+02 0.368E-01 0.178E-05 .80917E-02 0.863E+02 0.128E+01 0.000E+00 0.000E+00 0.000E+00
BIGSUB   2        0  354.10671E+00 0.399E+02 0.000E+00 0.312E+01 0.293E+01 0.770E+02 0.384E-02 0.131E+02 0.000E+00 0.277E+02 0.681E+00 0.884E+00 0.108E+00 0.457E-03 0.903E-03 0.842E-01 0.146E+02 0.279E-01 0.100E-11 .51863E-02 0.746E+02 0.153E+01 0.000E+00 0.000E+00 0.000E+00
BIGSUB   3        0  354.62454E+00 0.399E+02 0.000E+00 0.313E+01 0.290E+01 0.825E+02 0.344E-01 0.111E+02 0.420E-02 0.272E+02 0.120E+01 0.115E+01 0.140E+00 0.621E-03 0.328E-03 0.109E+00 0.161E+02 0.311E-01 0.151E-05 .75138E-02 0.128E+03 0.133E+01 0.000E+00 0.000E+00 0.000E+00
BIGSUB   4        0  354.44478E+00 0.399E+02 0.000E+00 0.312E+01 0.292E+01 0.775E+02 0.129E-01 0.130E+02 0.132E-02 0.277E+02 0.120E+01 0.956E+00 0.117E+00 0.616E-03 0.752E-03 0.913E-01 0.147E+02 0.281E-01 0.478E-06 .56276E-02 0.138E+03 0.147E+01 0.000E+00 0.000E+00 0.000E+00
BIGSUB   5        0  354.17237E+00 0.399E+02 0.000E+00 0.311E+01 0.298E+01 0.617E+02 0.324E-01 0.177E+02 0.936E-03 0.287E+02 0.489E+00 0.664E+00 0.812E-01 0.374E-03 0.188E-02 0.632E-01 0.110E+02 0.210E-01 0.188E-06 .40086E-02 0.548E+02 0.179E+01 0.000E+00 0.000E+00 0.000E+00
BIGSUB   1        0  355.11943E+00 0.180E+01 0.000E+00 0.338E+01 0.285E+01 0.929E+02 0.373E-04 0.433E-02 0.499E-02 0.556E+01 0.197E-09 0.871E-05 0.106E-05 0.105E-06 0.105E-05 0.740E-06 0.555E+01 0.127E-01 0.185E-05 .75653E-08 0.000E+00 0.454E+00 0.000E+00 0.000E+00 0.000E+00
BIGSUB   2        0  355.10671E+00 0.180E+01 0.000E+00 0.337E+01 0.285E+01 0.756E+02 0.328E-02 0.168E-01 0.000E+00 0.527E+01 0.375E-09 0.100E-08 0.100E-08 0.530E-06 0.258E-05 0.200E-08 0.525E+01 0.961E-02 0.100E-11 .20762E-07 0.000E+00 0.430E+00 0.000E+00 0.000E+00 0.000E+00
BIGSUB   3        0  355.62454E+00 0.180E+01 0.000E+00 0.339E+01 0.277E+01 0.811E+02 0.206E-04 0.143E-02 0.427E-02 0.580E+01 0.918E-10 0.178E-04 0.217E-05 0.351E-07 0.304E-06 0.150E-05 0.579E+01 0.107E-01 0.158E-05 .43141E-07 0.000E+00 0.472E+00 0.000E+00 0.000E+00 0.000E+00
BIGSUB   4        0  355.44478E+00 0.180E+01 0.000E+00 0.338E+01 0.283E+01 0.762E+02 0.250E-02 0.236E-01 0.134E-02 0.531E+01 0.349E-09 0.232E-05 0.284E-06 0.918E-06 0.372E-05 0.198E-06 0.529E+01 0.970E-02 0.498E-06 .37434E-07 0.000E+00 0.433E+00 0.000E+00 0.000E+00 0.000E+00
BIGSUB   5        0  355.17237E+00 0.180E+01 0.000E+00 0.337E+01 0.298E+01 0.603E+02 0.905E-02 0.371E+00 0.957E-03 0.434E+01 0.658E-09 0.120E-08 0.101E-08 0.234E-05 0.570E-04 0.200E-08 0.396E+01 0.723E-02 0.202E-06 .92687E-07 0.000E+00 0.353E+00 0.000E+00 0.000E+00 0.000E+00
BIGSUB   1        0  356.11943E+00 0.234E+02 0.000E+00 0.425E+01 0.366E+01 0.935E+02 0.927E+00 0.347E+01 0.509E-02 0.150E+02 0.182E+00 0.297E+00 0.364E-01 0.210E-03 0.122E-03 0.282E-01 0.115E+02 0.257E-01 0.194E-05 .63501E-03 0.131E+02 0.948E+00 0.000E+00 0.000E+00 0.000E+00
BIGSUB   2        0  356.10671E+00 0.234E+02 0.000E+00 0.424E+01 0.367E+01 0.775E+02 0.408E-02 0.456E+01 0.000E+00 0.151E+02 0.185E+00 0.234E+00 0.287E-01 0.182E-03 0.406E-03 0.223E-01 0.105E+02 0.176E-01 0.100E-11 .32666E-03 0.983E+01 0.104E+01 0.000E+00 0.000E+00 0.000E+00
BIGSUB   3        0  356.62454E+00 0.234E+02 0.000E+00 0.425E+01 0.358E+01 0.831E+02 0.251E-01 0.310E+01 0.437E-02 0.147E+02 0.348E+00 0.315E+00 0.386E-01 0.265E-03 0.904E-04 0.299E-01 0.116E+02 0.198E-01 0.166E-05 .57234E-03 0.206E+02 0.957E+00 0.000E+00 0.000E+00 0.000E+00
BIGSUB   4        0  356.44478E+00 0.234E+02 0.000E+00 0.425E+01 0.365E+01 0.781E+02 0.103E-01 0.445E+01 0.137E-02 0.150E+02 0.390E+00 0.252E+00 0.309E-01 0.287E-03 0.330E-03 0.241E-01 0.106E+02 0.178E-01 0.522E-06 .35611E-03 0.307E+02 0.101E+01 0.000E+00 0.000E+00 0.000E+00
BIGSUB   5        0  356.17237E+00 0.234E+02 0.000E+00 0.424E+01 0.381E+01 0.620E+02 0.286E-01 0.766E+01 0.984E-03 0.156E+02 0.134E+00 0.178E+00 0.217E-01 0.163E-03 0.948E-03 0.169E-01 0.792E+01 0.132E-01 0.220E-06 .27091E-03 0.735E+01 0.113E+01 0.000E+00 0.000E+00 0.000E+00
BIGSUB   1        0  357.11943E+00 0.376E+02 0.000E+00 0.230E+01 0.228E+01 0.949E+02 0.161E+01 0.112E+02 0.524E-02 0.290E+02 0.294E+00 0.815E+00 0.996E-01 0.259E-03 0.387E-03 0.772E-01 0.178E+02 0.414E-01 0.207E-05 .48377E-02 0.373E+02 0.151E+01 0.000E+00 0.000E+00 0.000E+00
BIGSUB   2        0  357.10671E+00 0.376E+02 0.000E+00 0.231E+01 0.229E+01 0.812E+02 0.456E-02 0.126E+02 0.000E+00 0.287E+02 0.370E+00 0.733E+00 0.897E-01 0.254E-03 0.861E-03 0.698E-01 0.161E+02 0.266E-01 0.100E-11 .36623E-02 0.390E+02 0.168E+01 0.000E+00 0.000E+00 0.000E+00
BIGSUB   3        0  357.62454E+00 0.376E+02 0.000E+00 0.229E+01 0.226E+01 0.868E+02 0.363E-01 0.107E+02 0.449E-02 0.284E+02 0.627E+00 0.944E+00 0.116E+00 0.351E-03 0.306E-03 0.897E-01 0.177E+02 0.300E-01 0.176E-05 .52675E-02 0.635E+02 0.150E+01 0.000E+00 0.000E+00 0.000E+00
BIGSUB   4        0  357.44478E+00 0.376E+02 0.000E+00 0.231E+01 0.229E+01 0.818E+02 0.138E-01 0.125E+02 0.141E-02 0.287E+02 0.578E+00 0.788E+00 0.964E-01 0.366E-03 0.718E-03 0.753E-01 0.162E+02 0.268E-01 0.556E-06 .39489E-02 0.616E+02 0.162E+01 0.000E+00 0.000E+00 0.000E+00
BIGSUB   5        0  357.17237E+00 0.376E+02 0.000E+00 0.231E+01 0.230E+01 0.655E+02 0.388E-01 0.172E+02 0.102E-02 0.294E+02 0.265E+00 0.551E+00 0.674E-01 0.215E-03 0.182E-02 0.525E-01 0.121E+02 0.200E-01 0.245E-06 .28293E-02 0.286E+02 0.191E+01 0.000E+00 0.000E+00 0.000E+00
BIGSUB   1        0  358.11943E+00 0.378E+02 0.000E+00 0.223E+01 0.221E+01 0.950E+02 0.189E+01 0.116E+02 0.543E-02 0.322E+02 0.675E+00 0.138E+01 0.169E+00 0.205E-03 0.393E-03 0.131E+00 0.206E+02 0.481E-01 0.222E-05 .71275E-02 0.674E+02 0.173E+01 0.000E+00 0.000E+00 0.000E+00
BIGSUB   2        0  358.10671E+00 0.378E+02 0.000E+00 0.223E+01 0.221E+01 0.841E+02 0.551E-02 0.134E+02 0.000E+00 0.316E+02 0.818E+00 0.130E+01 0.159E+00 0.208E-03 0.891E-03 0.124E+00 0.181E+02 0.282E-01 0.100E-11 .61178E-02 0.706E+02 0.185E+01 0.000E+00 0.000E+00 0.000E+00
BIGSUB   3        0  358.62454E+00 0.378E+02 0.000E+00 0.224E+01 0.221E+01 0.897E+02 0.384E-01 0.114E+02 0.465E-02 0.315E+02 0.144E+01 0.166E+01 0.203E+00 0.289E-03 0.322E-03 0.158E+00 0.200E+02 0.322E-01 0.190E-05 .86837E-02 0.122E+03 0.168E+01 0.000E+00 0.000E+00 0.000E+00
BIGSUB   4        0  358.44478E+00 0.378E+02 0.000E+00 0.223E+01 0.221E+01 0.847E+02 0.151E-01 0.133E+02 0.146E-02 0.316E+02 0.146E+01 0.139E+01 0.170E+00 0.304E-03 0.744E-03 0.133E+00 0.183E+02 0.293E-01 0.598E-06 .65632E-02 0.135E+03 0.179E+01 0.000E+00 0.000E+00 0.000E+00
BIGSUB   5        0  358.17237E+00 0.378E+02 0.000E+00 0.222E+01 0.221E+01 0.683E+02 0.451E-01 0.182E+02 0.107E-02 0.319E+02 0.587E+00 0.980E+00 0.120E+00 0.177E-03 0.189E-02 0.933E-01 0.137E+02 0.213E-01 0.278E-06 .47321E-02 0.519E+02 0.207E+01 0.000E+00 0.000E+00 0.000E+00
BIGSUB   1        0  359.11943E+00 0.510E+01 0.000E+00 0.403E+01 0.352E+01 0.937E+02 0.158E+00 0.495E-02 0.559E-02 0.889E+01 0.197E-09 0.134E-04 0.163E-05 0.783E-07 0.116E-05 0.113E-05 0.888E+01 0.193E-01 0.236E-05 .84196E-08 0.000E+00 0.736E+00 0.000E+00 0.000E+00 0.000E+00
BIGSUB   2        0  359.10671E+00 0.510E+01 0.000E+00 0.401E+01 0.356E+01 0.830E+02 0.573E-02 0.279E+00 0.000E+00 0.807E+01 0.375E-09 0.100E-08 0.100E-08 0.394E-05 0.420E-04 0.200E-08 0.779E+01 0.110E-01 0.100E-11 .15753E-06 0.000E+00 0.668E+00 0.000E+00 0.000E+00 0.000E+00
BIGSUB   3        0  359.62454E+00 0.510E+01 0.000E+00 0.405E+01 0.349E+01 0.886E+02 0.464E-02 0.317E-02 0.480E-02 0.866E+01 0.918E-10 0.281E-04 0.343E-05 0.110E-05 0.308E-06 0.237E-05 0.865E+01 0.126E-01 0.201E-05 .64930E-07 0.214E-09 0.717E+00 0.000E+00 0.000E+00 0.000E+00
BIGSUB   4        0  359.44478E+00 0.510E+01 0.000E+00 0.402E+01 0.355E+01 0.835E+02 0.569E-02 0.239E+00 0.150E-02 0.812E+01 0.349E-09 0.366E-05 0.474E-06 0.108E-04 0.347E-04 0.343E-06 0.788E+01 0.116E-01 0.634E-06 .18128E-06 0.307E-09 0.672E+00 0.000E+00 0.000E+00 0.000E+00
BIGSUB   5        0  359.17237E+00 0.510E+01 0.000E+00 0.401E+01 0.367E+01 0.672E+02 0.197E-01 0.110E+01 0.111E-02 0.698E+01 0.658E-09 0.127E-08 0.102E-08 0.112E-04 0.165E-03 0.200E-08 0.588E+01 0.830E-02 0.308E-06 .44885E-06 0.000E+00 0.578E+00 0.000E+00 0.000E+00 0.000E+00
BIGSUB   1        0  360.11943E+00 0.990E+01 0.000E+00 0.418E+01 0.362E+01 0.936E+02 0.273E+00 0.235E-01 0.576E-02 0.707E+01 0.625E-03 0.112E-02 0.137E-03 0.133E-05 0.135E-05 0.106E-03 0.704E+01 0.121E-01 0.247E-05 .78710E-09 0.657E-03 0.588E+00 0.000E+00 0.000E+00 0.000E+00
BIGSUB   2        0  360.10671E+00 0.990E+01 0.000E+00 0.417E+01 0.367E+01 0.831E+02 0.554E-02 0.769E+00 0.000E+00 0.698E+01 0.500E-03 0.692E-03 0.847E-04 0.660E-05 0.115E-03 0.660E-04 0.621E+01 0.685E-02 0.100E-11 .23006E-06 0.306E-03 0.580E+00 0.000E+00 0.000E+00 0.000E+00
BIGSUB   3        0  360.62454E+00 0.990E+01 0.000E+00 0.420E+01 0.359E+01 0.888E+02 0.100E-01 0.591E-01 0.494E-02 0.701E+01 0.684E-02 0.300E-02 0.369E-03 0.852E-05 0.152E-05 0.281E-03 0.695E+01 0.792E-02 0.211E-05 .69870E-07 0.313E+00 0.579E+00 0.000E+00 0.000E+00 0.000E+00
BIGSUB   4        0  360.44478E+00 0.990E+01 0.000E+00 0.418E+01 0.365E+01 0.836E+02 0.710E-02 0.681E+00 0.155E-02 0.698E+01 0.245E-01 0.773E-03 0.949E-04 0.280E-04 0.905E-04 0.741E-04 0.630E+01 0.732E-02 0.666E-06 .36823E-06 0.165E+01 0.574E+00 0.000E+00 0.000E+00 0.000E+00
BIGSUB   5        0  360.17237E+00 0.990E+01 0.000E+00 0.417E+01 0.379E+01 0.671E+02 0.225E-01 0.209E+01 0.116E-02 0.679E+01 0.453E-03 0.736E-03 0.900E-04 0.167E-04 0.315E-03 0.698E-04 0.470E+01 0.520E-02 0.337E-06 .66263E-06 0.178E-02 0.564E+00 0.000E+00 0.000E+00 0.000E+00
BIGSUB   1        0  361.11943E+00 0.000E+00 0.000E+00 0.637E+01 0.325E+01 0.903E+02 0.109E-04 0.166E-02 0.590E-02 0.243E+01 0.197E-09 0.237E-07 0.376E-08 0.277E-07 0.397E-06 0.392E-08 0.242E+01 0.417E-02 0.257E-05 .12836E-09 0.000E+00 0.196E+00 0.000E+00 0.000E+00 0.000E+00
BIGSUB   2        0  361.10671E+00 0.000E+00 0.000E+00 0.636E+01 0.350E+01 0.796E+02 0.471E-02 0.434E-03 0.000E+00 0.214E+01 0.375E-09 0.100E-08 0.100E-08 0.425E-08 0.666E-07 0.200E-08 0.213E+01 0.235E-02 0.100E-11 .10799E-09 0.000E+00 0.172E+00 0.000E+00 0.000E+00 0.000E+00
BIGSUB   3        0  361.62454E+00 0.000E+00 0.000E+00 0.637E+01 0.319E+01 0.856E+02 0.601E-05 0.423E-04 0.506E-02 0.239E+01 0.918E-10 0.384E-06 0.477E-07 0.162E-08 0.102E-07 0.337E-07 0.239E+01 0.272E-02 0.219E-05 .12500E-10 0.000E+00 0.193E+00 0.000E+00 0.000E+00 0.000E+00
BIGSUB   4        0  361.44478E+00 0.000E+00 0.000E+00 0.636E+01 0.342E+01 0.802E+02 0.357E-02 0.281E-02 0.159E-02 0.217E+01 0.349E-09 0.805E-08 0.186E-08 0.257E-07 0.465E-06 0.259E-08 0.216E+01 0.252E-02 0.691E-06 .73539E-09 0.000E+00 0.175E+00 0.000E+00 0.000E+00 0.000E+00
BIGSUB   5        0  361.17237E+00 0.000E+00 0.000E+00 0.636E+01 0.397E+01 0.631E+02 0.130E-01 0.677E-01 0.120E-02 0.169E+01 0.658E-09 0.992E-09 0.989E-09 0.509E-06 0.102E-04 0.198E-08 0.162E+01 0.179E-02 0.362E-06 .20197E-07 0.000E+00 0.136E+00 0.000E+00 0.000E+00 0.000E+00
BIGSUB   1        0  362.11943E+00 0.000E+00 0.000E+00 0.262E+01 0.100E+01 0.893E+02 0.217E-07 0.999E-03 0.602E-02 0.841E+00 0.197E-09 0.193E-08 0.111E-08 0.171E-07 0.240E-06 0.208E-08 0.831E+00 0.143E-02 0.264E-05 .36703E-10 0.000E+00 0.684E-01 0.000E+00 0.000E+00 0.000E+00
BIGSUB   2        0  362.10671E+00 0.000E+00 0.000E+00 0.261E+01 0.108E+01 0.785E+02 0.338E-02 0.176E-05 0.000E+00 0.734E+00 0.375E-09 0.100E-08 0.100E-08 0.100E-08 0.108E-08 0.200E-08 0.733E+00 0.808E-03 0.100E-11 .80838E-15 0.000E+00 0.596E-01 0.000E+00 0.000E+00 0.000E+00
BIGSUB   3        0  362.62454E+00 0.000E+00 0.000E+00 0.264E+01 0.985E+00 0.846E+02 0.637E-08 0.942E-05 0.516E-02 0.826E+00 0.918E-10 0.744E-07 0.995E-08 0.112E-08 0.289E-08 0.806E-08 0.820E+00 0.935E-03 0.225E-05 .12803E-12 0.000E+00 0.671E-01 0.000E+00 0.000E+00 0.000E+00
BIGSUB   4        0  362.44478E+00 0.000E+00 0.000E+00 0.261E+01 0.106E+01 0.792E+02 0.256E-02 0.653E-03 0.162E-02 0.747E+00 0.349E-09 0.131E-08 0.104E-08 0.813E-08 0.123E-06 0.202E-08 0.744E+00 0.865E-03 0.710E-06 .12093E-09 0.000E+00 0.607E-01 0.000E+00 0.000E+00 0.000E+00
BIGSUB   5        0  362.17237E+00 0.000E+00 0.000E+00 0.260E+01 0.124E+01 0.619E+02 0.933E-02 0.637E-02 0.123E-02 0.565E+00 0.658E-09 0.989E-09 0.989E-09 0.485E-07 0.965E-06 0.198E-08 0.556E+00 0.617E-03 0.382E-06 .18224E-08 0.000E+00 0.459E-01 0.000E+00 0.000E+00 0.000E+00
BIGSUB   1        0  363.11943E+00 0.389E+02 0.000E+00 0.236E+01 0.234E+01 0.949E+02 0.912E+00 0.113E+02 0.617E-02 0.239E+02 0.548E+00 0.874E+00 0.107E+00 0.317E-03 0.375E-03 0.828E-01 0.127E+02 0.194E-01 0.273E-05 .77335E-02 0.820E+02 0.105E+01 0.000E+00 0.000E+00 0.000E+00
BIGSUB   2        0  363.10671E+00 0.389E+02 0.000E+00 0.237E+01 0.235E+01 0.847E+02 0.370E-02 0.135E+02 0.000E+00 0.248E+02 0.714E+00 0.866E+00 0.106E+00 0.318E-03 0.874E-03 0.825E-01 0.113E+02 0.111E-01 0.100E-11 .74244E-02 0.950E+02 0.125E+01 0.000E+00 0.000E+00 0.000E+00
BIGSUB   3        0  363.62454E+00 0.389E+02 0.000E+00 0.235E+01 0.232E+01 0.910E+02 0.310E-01 0.117E+02 0.529E-02 0.241E+02 0.125E+01 0.110E+01 0.135E+00 0.425E-03 0.321E-03 0.104E+00 0.124E+02 0.124E-01 0.233E-05 .10313E-01 0.159E+03 0.103E+01 0.000E+00 0.000E+00 0.000E+00
BIGSUB   4        0  363.44478E+00 0.389E+02 0.000E+00 0.236E+01 0.234E+01 0.854E+02 0.119E-01 0.134E+02 0.166E-02 0.247E+02 0.121E+01 0.920E+00 0.113E+00 0.436E-03 0.724E-03 0.880E-01 0.113E+02 0.112E-01 0.735E-06 .79076E-02 0.161E+03 0.118E+01 0.000E+00 0.000E+00 0.000E+00
BIGSUB   5        0  363.17237E+00 0.389E+02 0.000E+00 0.237E+01 0.235E+01 0.677E+02 0.267E-01 0.177E+02 0.127E-02 0.262E+02 0.512E+00 0.653E+00 0.798E-01 0.268E-03 0.179E-02 0.621E-01 0.850E+01 0.841E-02 0.407E-06 .57082E-02 0.697E+02 0.155E+01 0.000E+00 0.000E+00 0.000E+00
BIGSUB   1        0  364.11943E+00 0.300E+01 0.000E+00 0.422E+01 0.362E+01 0.934E+02 0.114E-02 0.306E-02 0.631E-02 0.492E+01 0.197E-09 0.740E-05 0.903E-06 0.937E-07 0.719E-06 0.628E-06 0.491E+01 0.670E-02 0.280E-05 .36805E-08 0.000E+00 0.401E+00 0.000E+00 0.000E+00 0.000E+00
BIGSUB   2        0  364.10671E+00 0.300E+01 0.000E+00 0.421E+01 0.365E+01 0.831E+02 0.369E-02 0.768E-01 0.000E+00 0.452E+01 0.375E-09 0.100E-08 0.100E-08 0.213E-05 0.117E-04 0.200E-08 0.444E+01 0.389E-02 0.100E-11 .84990E-07 0.000E+00 0.368E+00 0.000E+00 0.000E+00 0.000E+00
BIGSUB   3        0  364.62454E+00 0.300E+01 0.000E+00 0.422E+01 0.355E+01 0.895E+02 0.106E-02 0.128E-02 0.541E-02 0.490E+01 0.918E-10 0.151E-04 0.184E-05 0.455E-07 0.266E-06 0.126E-05 0.490E+01 0.433E-02 0.239E-05 .22134E-07 0.000E+00 0.400E+00 0.000E+00 0.000E+00 0.000E+00
BIGSUB   4        0  364.44478E+00 0.300E+01 0.000E+00 0.421E+01 0.363E+01 0.838E+02 0.323E-02 0.699E-01 0.170E-02 0.455E+01 0.349E-09 0.197E-05 0.242E-06 0.208E-05 0.107E-04 0.168E-06 0.448E+01 0.393E-02 0.754E-06 .81384E-07 0.000E+00 0.371E+00 0.000E+00 0.000E+00 0.000E+00
BIGSUB   5        0  364.17237E+00 0.300E+01 0.000E+00 0.421E+01 0.379E+01 0.660E+02 0.104E-01 0.514E+00 0.130E-02 0.386E+01 0.658E-09 0.113E-08 0.101E-08 0.662E-05 0.784E-04 0.199E-08 0.335E+01 0.293E-02 0.427E-06 .26396E-06 0.000E+00 0.315E+00 0.000E+00 0.000E+00 0.000E+00
BIGSUB   1        0  365.11943E+00 0.442E+02 0.000E+00 0.410E+01 0.357E+01 0.936E+02 0.177E+01 0.155E+02 0.648E-02 0.324E+02 0.100E+01 0.147E+01 0.179E+00 0.306E-03 0.508E-03 0.139E+00 0.169E+02 0.332E-01 0.291E-05 .13461E-01 0.142E+03 0.141E+01 0.000E+00 0.000E+00 0.000E+00
BIGSUB   2        0  365.10671E+00 0.442E+02 0.000E+00 0.412E+01 0.364E+01 0.839E+02 0.664E+00 0.182E+02 0.000E+00 0.335E+02 0.133E+01 0.147E+01 0.180E+00 0.319E-03 0.110E-02 0.140E+00 0.153E+02 0.269E-01 0.100E-11 .13036E-01 0.167E+03 0.167E+01 0.000E+00 0.000E+00 0.000E+00
BIGSUB   3        0  365.62454E+00 0.442E+02 0.000E+00 0.409E+01 0.354E+01 0.906E+02 0.548E+00 0.162E+02 0.556E-02 0.328E+02 0.230E+01 0.184E+01 0.225E+00 0.418E-03 0.434E-03 0.175E+00 0.166E+02 0.280E-01 0.248E-05 .17806E-01 0.276E+03 0.140E+01 0.000E+00 0.000E+00 0.000E+00
BIGSUB   4        0  365.44478E+00 0.442E+02 0.000E+00 0.411E+01 0.362E+01 0.846E+02 0.626E+00 0.181E+02 0.174E-02 0.335E+02 0.216E+01 0.155E+01 0.190E+00 0.428E-03 0.923E-03 0.149E+00 0.154E+02 0.278E-01 0.782E-06 .13790E-01 0.268E+03 0.159E+01 0.000E+00 0.000E+00 0.000E+00
BIGSUB   5        0  365.17237E+00 0.442E+02 0.000E+00 0.412E+01 0.376E+01 0.668E+02 0.640E+00 0.228E+02 0.135E-02 0.343E+02 0.952E+00 0.111E+01 0.136E+00 0.265E-03 0.220E-02 0.105E+00 0.116E+02 0.212E-01 0.457E-06 .99246E-02 0.122E+03 0.201E+01 0.000E+00 0.000E+00 0.000E+00
BIGSUB   1        0  366.11943E+00 0.150E+01 0.000E+00 0.716E+01 0.458E+01 0.903E+02 0.428E-04 0.470E-02 0.663E-02 0.594E+01 0.197E-09 0.133E-04 0.162E-05 0.924E-07 0.110E-05 0.113E-05 0.592E+01 0.114E-01 0.299E-05 .98308E-08 0.000E+00 0.480E+00 0.000E+00 0.000E+00 0.000E+00
BIGSUB   2        0  366.10671E+00 0.150E+01 0.000E+00 0.716E+01 0.486E+01 0.803E+02 0.356E-02 0.924E-02 0.000E+00 0.539E+01 0.375E-09 0.100E-08 0.100E-08 0.297E-06 0.140E-05 0.200E-08 0.538E+01 0.924E-02 0.100E-11 .11398E-07 0.000E+00 0.436E+00 0.000E+00 0.000E+00 0.000E+00
BIGSUB   3        0  366.62454E+00 0.150E+01 0.000E+00 0.716E+01 0.453E+01 0.873E+02 0.237E-04 0.179E-02 0.568E-02 0.587E+01 0.918E-10 0.272E-04 0.332E-05 0.294E-07 0.370E-06 0.229E-05 0.586E+01 0.965E-02 0.255E-05 .61411E-07 0.000E+00 0.475E+00 0.000E+00 0.000E+00 0.000E+00
BIGSUB   4        0  366.44478E+00 0.150E+01 0.000E+00 0.716E+01 0.478E+01 0.811E+02 0.281E-02 0.188E-01 0.178E-02 0.544E+01 0.349E-09 0.355E-05 0.434E-06 0.329E-06 0.297E-05 0.301E-06 0.542E+01 0.957E-02 0.803E-06 .14668E-07 0.000E+00 0.440E+00 0.000E+00 0.000E+00 0.000E+00
BIGSUB   5        0  366.17237E+00 0.150E+01 0.000E+00 0.716E+01 0.536E+01 0.628E+02 0.981E-02 0.400E+00 0.139E-02 0.448E+01 0.658E-09 0.127E-08 0.102E-08 0.157E-05 0.610E-04 0.200E-08 0.408E+01 0.731E-02 0.481E-06 .62171E-07 0.000E+00 0.363E+00 0.000E+00 0.000E+00 0.000E+00
