1
    SWAT Dec 23 2016    VER 2016/Rev 664                                                                 0/ 0/   0      0: 0: 0

    General Input/Output section (file.cio):                                        
    2/7/2020 21:47:35 QSWAT Workflow v1.5.2                                         
                                                                                    


       SUB      GIS  MON   AREAkm2  PRECIPmm SNOMELTmm     PETmm      ETmm      SWmm    PERCmm    SURQmm    GW_Qmm    WYLDmm  SYLDt/ha ORGNkg/ha ORGPkg/haNSURQkg/ha SOLPkg/ha SEDPkg/ha LAT Q(mm)LATNO3kg/hGWNO3kg/haCHOLAmic/LCBODU mg/L DOXQ mg/L TNO3kg/ha   QTILEmm TVAPkg/ha
BIGSUB   1        0    1.15760E+00   576.600     0.000   117.409    90.195   111.364    23.439   136.065     7.146   454.358     7.868    23.535     2.875     0.004     0.009     2.264   310.767     0.453     0.001 .00000E+00 0.000E+00 0.000E+00 0.000E+00 0.000E+00 0.000E+00
BIGSUB   2        0    1.14128E+00   576.600     0.000   117.355    87.483    98.926    10.326   157.871     1.925   461.011    18.167    28.727     3.508     0.005     0.008     2.826   301.078     0.417     0.001 .00000E+00 0.000E+00 0.000E+00 0.000E+00 0.000E+00 0.000E+00
BIGSUB   3        0    1.21095E+00   576.600     0.000   117.410    90.534   111.774    61.318   135.449    27.487   438.192     6.775    21.756     2.658     0.003     0.009     2.089   274.057     0.420     0.005 .00000E+00 0.000E+00 0.000E+00 0.000E+00 0.000E+00 0.000E+00
BIGSUB   4        0    1.18489E+00   576.600     0.000   117.371    87.509    96.088     9.373   162.258     0.000   460.237    12.635    26.324     3.216     0.005     0.009     2.581   297.877     0.420     0.000 .00000E+00 0.000E+00 0.000E+00 0.000E+00 0.000E+00 0.000E+00
BIGSUB   5        0    1.20438E+00   576.600     0.000   117.403    89.808   102.955    56.408   151.861    26.628   442.791     5.064    19.515     2.384     0.003     0.010     1.884   263.236     0.398     0.004 .00000E+00 0.000E+00 0.000E+00 0.000E+00 0.000E+00 0.000E+00
BIGSUB   6        0    1.17925E+00   576.600     0.000   117.388    88.568    96.089    30.797   164.240    13.240   453.906     6.690    21.075     2.575     0.004     0.010     2.054   275.906     0.428     0.002 .00000E+00 0.000E+00 0.000E+00 0.000E+00 0.000E+00 0.000E+00
BIGSUB   7        0    1.19956E+00   576.600     0.000   117.393    88.797    98.686    29.568   159.424    10.192   451.903     7.203    21.754     2.658     0.004     0.010     2.117   281.788     0.437     0.001 .00000E+00 0.000E+00 0.000E+00 0.000E+00 0.000E+00 0.000E+00
BIGSUB   8        0    1.58278E-01   576.600     0.000   117.367    87.758    96.088    12.588   163.055     0.000   457.351     9.581    24.178     2.954     0.005     0.009     2.363   294.134     0.432     0.000 .00000E+00 0.000E+00 0.000E+00 0.000E+00 0.000E+00 0.000E+00
BIGSUB   9        0    1.38835E+00   576.600     0.000   117.351    87.363    96.086     8.549   161.762     0.440   461.389    15.002    27.750     3.389     0.005     0.008     2.726   299.096     0.411     0.000 .00000E+00 0.000E+00 0.000E+00 0.000E+00 0.000E+00 0.000E+00
BIGSUB  10        0    1.17761E+00   576.600     0.000   117.324    87.601    99.692    19.740   157.119     6.010   456.006    12.367    25.635     3.131     0.005     0.009     2.511   292.548     0.405     0.003 .00000E+00 0.000E+00 0.000E+00 0.000E+00 0.000E+00 0.000E+00
BIGSUB  11        0    1.14877E-01   576.600     0.000   117.323    88.212   116.429    34.387   134.238    14.779   450.158    12.199    22.748     2.778     0.004     0.009     2.217   300.507     0.410     0.005 .00000E+00 0.000E+00 0.000E+00 0.000E+00 0.000E+00 0.000E+00
BIGSUB   1        0    2.15760E+00   144.700     0.000   106.927    69.829    61.760     7.121    35.805    12.025   136.605     4.044     6.975     0.852     0.000     0.002     0.670    88.332     0.109     0.001 .00000E+00 0.000E+00 0.000E+00 0.000E+00 0.000E+00 0.000E+00
BIGSUB   2        0    2.14128E+00   144.700     0.000   106.803    68.587    50.340     3.452    41.330     2.222   133.650     9.168     6.948     0.848     0.000     0.001     0.685    89.925     0.122     0.001 .00000E+00 0.000E+00 0.000E+00 0.000E+00 0.000E+00 0.000E+00
BIGSUB   3        0    2.21095E+00   144.700     0.000   106.928    69.903    62.102    16.758    35.605    33.921   150.004     3.416     6.517     0.796     0.000     0.002     0.624    79.175     0.102     0.006 .00000E+00 0.000E+00 0.000E+00 0.000E+00 0.000E+00 0.000E+00
BIGSUB   4        0    2.18489E+00   144.700     0.000   106.839    68.539    47.553     3.356    42.252     0.000   131.360     6.360     6.928     0.846     0.000     0.001     0.681    88.966     0.121     0.000 .00000E+00 0.000E+00 0.000E+00 0.000E+00 0.000E+00 0.000E+00
BIGSUB   5        0    2.20438E+00   144.700     0.000   106.912    69.112    53.958    15.744    39.342    31.598   149.427     2.489     5.818     0.711     0.000     0.002     0.561    77.314     0.090     0.006 .00000E+00 0.000E+00 0.000E+00 0.000E+00 0.000E+00 0.000E+00
BIGSUB   6        0    2.17925E+00   144.700     0.000   106.880    68.527    47.575     9.170    42.261    16.952   142.214     3.284     5.999     0.733     0.000     0.002     0.585    82.403     0.105     0.003 .00000E+00 0.000E+00 0.000E+00 0.000E+00 0.000E+00 0.000E+00
BIGSUB   7        0    2.19956E+00   144.700     0.000   106.890    68.777    49.957     8.794    41.159    15.522   140.840     3.561     6.208     0.758     0.000     0.002     0.604    83.585     0.109     0.002 .00000E+00 0.000E+00 0.000E+00 0.000E+00 0.000E+00 0.000E+00
BIGSUB   8        0    2.58278E-01   144.700     0.000   106.831    68.532    47.559     4.262    42.252     0.000   130.404     4.797     6.649     0.812     0.000     0.002     0.651    87.944     0.121     0.000 .00000E+00 0.000E+00 0.000E+00 0.000E+00 0.000E+00 0.000E+00
BIGSUB   9        0    2.38835E+00   144.700     0.000   106.794    68.487    47.599     3.093    42.259     0.481   132.135     7.569     7.058     0.862     0.000     0.001     0.695    89.268     0.119     0.000 .00000E+00 0.000E+00 0.000E+00 0.000E+00 0.000E+00 0.000E+00
BIGSUB  10        0    2.17761E+00   144.700     0.000   106.733    68.562    51.122     5.966    41.098     6.640   135.791     6.235     6.782     0.828     0.000     0.002     0.665    87.675     0.116     0.003 .00000E+00 0.000E+00 0.000E+00 0.000E+00 0.000E+00 0.000E+00
BIGSUB  11        0    2.14877E-01   144.700     0.000   106.729    69.010    67.406     9.684    35.682    16.924   142.735     6.180     6.039     0.737     0.000     0.002     0.587    89.426     0.114     0.007 .00000E+00 0.000E+00 0.000E+00 0.000E+00 0.000E+00 0.000E+00
BIGSUB   1        0    3.15760E+00    93.800     0.000   115.533    85.824    36.905     0.000     0.001     7.442    40.763     0.000     0.000     0.000     0.000     0.000     0.000    32.821     0.000     0.000 .00000E+00 0.000E+00 0.000E+00 0.000E+00 0.000E+00 0.000E+00
BIGSUB   2        0    3.14128E+00    93.800     0.000   115.382    83.478    20.885     0.000     0.000     1.743    41.706     0.000     0.000     0.000     0.000     0.000     0.000    39.761     0.000     0.000 .00000E+00 0.000E+00 0.000E+00 0.000E+00 0.000E+00 0.000E+00
BIGSUB   3        0    3.21095E+00    93.800     0.000   115.535    86.520    41.591     0.000     0.000    25.011    54.207     0.000     0.000     0.000     0.000     0.000     0.000    27.781     0.000     0.002 .00000E+00 0.000E+00 0.000E+00 0.000E+00 0.000E+00 0.000E+00
BIGSUB   4        0    3.18489E+00    93.800     0.000   115.427    83.458    18.234     0.000     0.000     0.000    39.817     0.000     0.000     0.000     0.000     0.000     0.000    39.645     0.000     0.000 .00000E+00 0.000E+00 0.000E+00 0.000E+00 0.000E+00 0.000E+00
BIGSUB   5        0    3.20438E+00    93.800     0.000   115.516    87.369    32.383     0.000     0.000    19.933    49.211     0.000     0.000     0.000     0.000     0.000     0.000    27.995     0.001     0.002 .00000E+00 0.000E+00 0.000E+00 0.000E+00 0.000E+00 0.000E+00
BIGSUB   6        0    3.17925E+00    93.800     0.000   115.476    86.408    21.722     0.000     0.000     7.567    41.465     0.000     0.000     0.000     0.000     0.000     0.000    33.232     0.001     0.001 .00000E+00 0.000E+00 0.000E+00 0.000E+00 0.000E+00 0.000E+00
BIGSUB   7        0    3.19956E+00    93.800     0.000   115.488    86.155    24.374     0.000     0.000     9.903    43.759     0.000     0.000     0.000     0.000     0.000     0.000    33.216     0.001     0.001 .00000E+00 0.000E+00 0.000E+00 0.000E+00 0.000E+00 0.000E+00
BIGSUB   8        0    3.58278E-01    93.800     0.000   115.416    83.910    19.050     0.000     0.000     0.000    38.628     0.000     0.000     0.000     0.000     0.000     0.000    38.383     0.000     0.000 .00000E+00 0.000E+00 0.000E+00 0.000E+00 0.000E+00 0.000E+00
BIGSUB   9        0    3.38835E+00    93.800     0.000   115.371    83.222    17.920     0.000     0.000     0.369    40.766     0.000     0.000     0.000     0.000     0.000     0.000    40.241     0.000     0.000 .00000E+00 0.000E+00 0.000E+00 0.000E+00 0.000E+00 0.000E+00
BIGSUB  10        0    3.17761E+00    93.800     0.000   115.297    83.666    22.595     0.000     0.000     5.134    44.199     0.000     0.000     0.000     0.000     0.000     0.000    38.641     0.001     0.001 .00000E+00 0.000E+00 0.000E+00 0.000E+00 0.000E+00 0.000E+00
BIGSUB  11        0    3.14877E-01    93.800     0.000   115.292    85.039    40.127     0.000     0.000    13.233    50.030     0.000     0.000     0.000     0.000     0.000     0.000    36.024     0.001     0.003 .00000E+00 0.000E+00 0.000E+00 0.000E+00 0.000E+00 0.000E+00
BIGSUB   1        0    4.15760E+00   238.900     0.000   112.413    68.017    65.720     0.406    27.575     0.540   132.272     0.014     0.033     0.004     0.001     0.001     0.003   103.749     0.036     0.000 .00000E+00 0.000E+00 0.000E+00 0.000E+00 0.000E+00 0.000E+00
BIGSUB   2        0    4.14128E+00   238.900     0.000   112.383    57.149    48.899     0.000    27.642     0.283   138.833     0.023     0.026     0.003     0.001     0.001     0.002   110.741     0.027     0.000 .00000E+00 0.000E+00 0.000E+00 0.000E+00 0.000E+00 0.000E+00
BIGSUB   3        0    4.21095E+00   238.900     0.000   112.413    68.911    80.867     2.741    31.176     4.753   123.270     0.015     0.044     0.005     0.001     0.001     0.004    86.199     0.031     0.000 .00000E+00 0.000E+00 0.000E+00 0.000E+00 0.000E+00 0.000E+00
BIGSUB   4        0    4.18489E+00   238.900     0.000   112.392    56.517    46.500     0.000    28.662     0.000   138.934     0.017     0.026     0.003     0.001     0.001     0.002   110.128     0.027     0.000 .00000E+00 0.000E+00 0.000E+00 0.000E+00 0.000E+00 0.000E+00
BIGSUB   5        0    4.20438E+00   238.900     0.000   112.409    67.812    73.965     1.241    34.151     3.576   122.075     0.014     0.042     0.005     0.001     0.001     0.004    83.311     0.029     0.000 .00000E+00 0.000E+00 0.000E+00 0.000E+00 0.000E+00 0.000E+00
BIGSUB   6        0    4.17925E+00   238.900     0.000   112.402    62.135    57.975     0.190    33.189     0.934   128.532     0.014     0.032     0.004     0.001     0.001     0.003    93.866     0.029     0.000 .00000E+00 0.000E+00 0.000E+00 0.000E+00 0.000E+00 0.000E+00
BIGSUB   7        0    4.19956E+00   238.900     0.000   112.404    62.698    60.073     0.057    32.186     0.819   128.683     0.014     0.032     0.004     0.001     0.001     0.003    95.156     0.030     0.000 .00000E+00 0.000E+00 0.000E+00 0.000E+00 0.000E+00 0.000E+00
BIGSUB   8        0    4.58278E-01   238.900     0.000   112.390    57.762    48.581     0.000    29.788     0.000   136.728     0.014     0.026     0.003     0.001     0.001     0.002   106.737     0.028     0.000 .00000E+00 0.000E+00 0.000E+00 0.000E+00 0.000E+00 0.000E+00
BIGSUB   9        0    4.38835E+00   238.900     0.000   112.381    55.935    45.501     0.149    28.102     0.129   140.079     0.019     0.026     0.003     0.001     0.001     0.002   111.718     0.027     0.000 .00000E+00 0.000E+00 0.000E+00 0.000E+00 0.000E+00 0.000E+00
BIGSUB  10        0    4.17761E+00   238.900     0.000   112.366    57.901    52.074     0.609    28.351     1.114   137.161     0.016     0.025     0.003     0.001     0.001     0.002   107.351     0.026     0.000 .00000E+00 0.000E+00 0.000E+00 0.000E+00 0.000E+00 0.000E+00
BIGSUB  11        0    4.14877E-01   238.900     0.000   112.365    65.163    71.028     0.211    25.643     2.421   130.979     0.016     0.022     0.003     0.001     0.001     0.002   102.290     0.026     0.000 .00000E+00 0.000E+00 0.000E+00 0.000E+00 0.000E+00 0.000E+00
BIGSUB   1        0    5.15760E+00   134.700     0.000   133.556    78.028    64.468     0.284     1.701     0.320    68.131     0.001     0.002     0.000     0.000     0.000     0.000    65.776     0.050     0.000 .00000E+00 0.000E+00 0.000E+00 0.000E+00 0.000E+00 0.000E+00
BIGSUB   2        0    5.14128E+00   134.700     0.000   133.611    73.069    45.280     0.000     1.364     0.040    80.033     0.001     0.001     0.000     0.000     0.000     0.000    78.492     0.052     0.000 .00000E+00 0.000E+00 0.000E+00 0.000E+00 0.000E+00 0.000E+00
BIGSUB   3        0    5.21095E+00   134.700     0.000   133.555    80.378    79.320     4.006     2.206     3.778    66.689     0.001     0.003     0.000     0.000     0.000     0.000    59.757     0.045     0.000 .00000E+00 0.000E+00 0.000E+00 0.000E+00 0.000E+00 0.000E+00
BIGSUB   4        0    5.18489E+00   134.700     0.000   133.595    73.065    42.995     0.000     1.526     0.000    79.834     0.001     0.001     0.000     0.000     0.000     0.000    78.190     0.053     0.000 .00000E+00 0.000E+00 0.000E+00 0.000E+00 0.000E+00 0.000E+00
BIGSUB   5        0    5.20438E+00   134.700     0.000   133.562    79.716    76.144     1.786     3.446     1.706    63.833     0.002     0.005     0.001     0.000     0.000     0.000    57.831     0.044     0.000 .00000E+00 0.000E+00 0.000E+00 0.000E+00 0.000E+00 0.000E+00
BIGSUB   6        0    5.17925E+00   134.700     0.000   133.577    76.364    59.251     0.135     2.983     0.150    70.120     0.001     0.003     0.000     0.000     0.000     0.000    66.546     0.049     0.000 .00000E+00 0.000E+00 0.000E+00 0.000E+00 0.000E+00 0.000E+00
BIGSUB   7        0    5.19956E+00   134.700     0.000   133.572    76.616    60.722     0.211     2.657     0.157    70.260     0.001     0.003     0.000     0.000     0.000     0.000    67.023     0.049     0.000 .00000E+00 0.000E+00 0.000E+00 0.000E+00 0.000E+00 0.000E+00
BIGSUB   8        0    5.58278E-01   134.700     0.000   133.599    73.684    46.053     0.000     1.768     0.000    78.056     0.001     0.002     0.000     0.000     0.000     0.000    76.122     0.054     0.000 .00000E+00 0.000E+00 0.000E+00 0.000E+00 0.000E+00 0.000E+00
BIGSUB   9        0    5.38835E+00   134.700     0.000   133.615    72.758    41.464     0.105     1.431     0.117    80.760     0.001     0.001     0.000     0.000     0.000     0.000    79.103     0.053     0.000 .00000E+00 0.000E+00 0.000E+00 0.000E+00 0.000E+00 0.000E+00
BIGSUB  10        0    5.17761E+00   134.700     0.000   133.642    73.640    48.335     1.051     1.508     0.945    79.436     0.001     0.001     0.000     0.000     0.000     0.000    76.697     0.052     0.000 .00000E+00 0.000E+00 0.000E+00 0.000E+00 0.000E+00 0.000E+00
BIGSUB  11        0    5.14877E-01   134.700     0.000   133.644    75.466    70.052     0.127     1.198     0.499    75.096     0.001     0.001     0.000     0.000     0.000     0.000    72.892     0.050     0.000 .00000E+00 0.000E+00 0.000E+00 0.000E+00 0.000E+00 0.000E+00
BIGSUB   1        0    6.15760E+00   299.100     0.000    88.371    63.045    84.433     0.669    97.507     0.412   216.174     0.156     0.387     0.048     0.003     0.005     0.036   118.004     0.200     0.000 .00000E+00 0.000E+00 0.000E+00 0.000E+00 0.000E+00 0.000E+00
BIGSUB   2        0    6.14128E+00   299.100     0.000    88.538    60.043    59.071     0.621    94.496     0.109   224.933     0.232     0.260     0.032     0.004     0.003     0.024   130.226     0.191     0.000 .00000E+00 0.000E+00 0.000E+00 0.000E+00 0.000E+00 0.000E+00
BIGSUB   3        0    6.21095E+00   299.100     0.000    88.369    64.154    93.808    14.102   104.773     6.289   213.508     0.158     0.480     0.059     0.003     0.006     0.044   101.673     0.166     0.000 .00000E+00 0.000E+00 0.000E+00 0.000E+00 0.000E+00 0.000E+00
BIGSUB   4        0    6.18489E+00   299.100     0.000    88.488    60.008    57.484     0.000    96.662     0.000   224.778     0.168     0.255     0.031     0.004     0.004     0.024   128.029     0.189     0.000 .00000E+00 0.000E+00 0.000E+00 0.000E+00 0.000E+00 0.000E+00
BIGSUB   5        0    6.20438E+00   299.100     0.000    88.390    64.751    98.200     6.238   117.900     2.795   209.645     0.173     0.503     0.062     0.003     0.006     0.047    88.293     0.139     0.000 .00000E+00 0.000E+00 0.000E+00 0.000E+00 0.000E+00 0.000E+00
BIGSUB   6        0    6.17925E+00   299.100     0.000    88.434    62.549    81.575     0.308   113.969     0.191   214.588     0.161     0.366     0.045     0.003     0.005     0.034   100.101     0.150     0.000 .00000E+00 0.000E+00 0.000E+00 0.000E+00 0.000E+00 0.000E+00
BIGSUB   7        0    6.19956E+00   299.100     0.000    88.421    62.469    81.108     1.429   110.630     0.413   215.682     0.160     0.364     0.045     0.003     0.005     0.034   104.323     0.159     0.000 .00000E+00 0.000E+00 0.000E+00 0.000E+00 0.000E+00 0.000E+00
BIGSUB   8        0    6.58278E-01   299.100     0.000    88.500    60.421    62.237     0.000   100.101     0.000   222.723     0.139     0.256     0.032     0.004     0.004     0.024   122.501     0.183     0.000 .00000E+00 0.000E+00 0.000E+00 0.000E+00 0.000E+00 0.000E+00
BIGSUB   9        0    6.38835E+00   299.100     0.000    88.550    59.840    54.942     0.240    94.868     0.149   225.848     0.191     0.256     0.032     0.004     0.003     0.024   130.749     0.192     0.000 .00000E+00 0.000E+00 0.000E+00 0.000E+00 0.000E+00 0.000E+00
BIGSUB  10        0    6.17761E+00   299.100     0.000    88.631    60.275    61.712     3.554    95.944     1.567   223.786     0.162     0.251     0.031     0.004     0.004     0.023   126.044     0.186     0.000 .00000E+00 0.000E+00 0.000E+00 0.000E+00 0.000E+00 0.000E+00
BIGSUB  11        0    6.14877E-01   299.100     0.000    88.636    61.285    86.338     5.140    93.495     1.071   217.931     0.158     0.229     0.028     0.003     0.007     0.021   122.980     0.181     0.000 .00000E+00 0.000E+00 0.000E+00 0.000E+00 0.000E+00 0.000E+00
BIGSUB   1        0    7.15760E+00   248.800     0.000   102.756    77.307   101.634     1.009    17.008     0.539   154.172     0.038     0.096     0.012     0.001     0.001     0.009   136.424     0.215     0.000 .00000E+00 0.000E+00 0.000E+00 0.000E+00 0.000E+00 0.000E+00
BIGSUB   2        0    7.14128E+00   248.800     0.000   103.031    72.747    69.063     1.485    11.645     0.441   165.346     0.044     0.057     0.007     0.001     0.000     0.005   153.175     0.202     0.000 .00000E+00 0.000E+00 0.000E+00 0.000E+00 0.000E+00 0.000E+00
BIGSUB   3        0    7.21095E+00   248.800     0.000   102.752    78.319   105.308    18.214    18.352     9.360   151.009     0.042     0.116     0.014     0.001     0.001     0.011   122.568     0.184     0.000 .00000E+00 0.000E+00 0.000E+00 0.000E+00 0.000E+00 0.000E+00
BIGSUB   4        0    7.18489E+00   248.800     0.000   102.949    72.888    69.348     0.000    13.681     0.000   164.358     0.036     0.064     0.008     0.001     0.000     0.006   150.609     0.198     0.000 .00000E+00 0.000E+00 0.000E+00 0.000E+00 0.000E+00 0.000E+00
BIGSUB   5        0    7.20438E+00   248.800     0.000   102.788    78.725    97.436    21.421    27.383     4.347   154.491     0.066     0.202     0.025     0.002     0.001     0.019   122.175     0.203     0.000 .00000E+00 0.000E+00 0.000E+00 0.000E+00 0.000E+00 0.000E+00
BIGSUB   6        0    7.17925E+00   248.800     0.000   102.860    76.944    90.366     6.851    28.776     0.251   156.910     0.068     0.180     0.022     0.002     0.001     0.017   127.621     0.187     0.000 .00000E+00 0.000E+00 0.000E+00 0.000E+00 0.000E+00 0.000E+00
BIGSUB   7        0    7.19956E+00   248.800     0.000   102.838    76.911    92.911     5.097    26.253     0.857   156.291     0.061     0.157     0.019     0.002     0.001     0.015   128.921     0.185     0.000 .00000E+00 0.000E+00 0.000E+00 0.000E+00 0.000E+00 0.000E+00
BIGSUB   8        0    7.58278E-01   248.800     0.000   102.969    73.712    76.117     0.000    16.817     0.000   161.535     0.036     0.078     0.010     0.001     0.001     0.007   144.623     0.190     0.000 .00000E+00 0.000E+00 0.000E+00 0.000E+00 0.000E+00 0.000E+00
BIGSUB   9        0    7.38835E+00   248.800     0.000   103.051    72.537    65.566     0.369    12.076     0.196   165.780     0.037     0.057     0.007     0.001     0.000     0.005   153.443     0.201     0.000 .00000E+00 0.000E+00 0.000E+00 0.000E+00 0.000E+00 0.000E+00
BIGSUB  10        0    7.17761E+00   248.800     0.000   103.185    73.122    72.247     4.547    12.465     2.353   163.388     0.033     0.058     0.007     0.001     0.000     0.005   148.359     0.196     0.000 .00000E+00 0.000E+00 0.000E+00 0.000E+00 0.000E+00 0.000E+00
BIGSUB  11        0    7.14877E-01   248.800     0.000   103.193    74.384    93.056    11.333    10.118     3.613   160.537     0.029     0.045     0.006     0.001     0.001     0.004   146.456     0.201     0.000 .00000E+00 0.000E+00 0.000E+00 0.000E+00 0.000E+00 0.000E+00
BIGSUB   1        0    8.15760E+00   467.800     0.000   112.387    75.128   103.121    14.784   157.028     0.857   377.301     1.003     2.786     0.342     0.005     0.007     0.259   219.232     0.292     0.000 .00000E+00 0.000E+00 0.000E+00 0.000E+00 0.000E+00 0.000E+00
BIGSUB   2        0    8.14128E+00   467.800     0.000   112.637    70.691    86.990     2.870   150.330     1.174   377.344     1.488     1.908     0.235     0.006     0.005     0.182   225.758     0.204     0.000 .00000E+00 0.000E+00 0.000E+00 0.000E+00 0.000E+00 0.000E+00
BIGSUB   3        0    8.21095E+00   467.800     0.000   112.383    75.433   103.723    43.152   156.642    16.151   367.603     0.933     2.921     0.358     0.005     0.007     0.270   194.018     0.256     0.002 .00000E+00 0.000E+00 0.000E+00 0.000E+00 0.000E+00 0.000E+00
BIGSUB   4        0    8.18489E+00   467.800     0.000   112.563    71.091    88.036     0.174   160.808     0.000   377.674     1.114     1.970     0.242     0.006     0.005     0.187   216.816     0.200     0.000 .00000E+00 0.000E+00 0.000E+00 0.000E+00 0.000E+00 0.000E+00
BIGSUB   5        0    8.20438E+00   467.800     0.000   112.416    74.420    95.262    39.312   170.409    14.733   371.523     0.956     3.123     0.383     0.004     0.008     0.293   185.701     0.253     0.001 .00000E+00 0.000E+00 0.000E+00 0.000E+00 0.000E+00 0.000E+00
BIGSUB   6        0    8.17925E+00   467.800     0.000   112.482    73.128    88.456    21.225   180.905     2.468   377.941     1.015     2.670     0.328     0.005     0.007     0.252   194.281     0.254     0.000 .00000E+00 0.000E+00 0.000E+00 0.000E+00 0.000E+00 0.000E+00
BIGSUB   7        0    8.19956E+00   467.800     0.000   112.462    73.430    90.947    20.591   176.876     2.091   377.937     1.019     2.633     0.323     0.005     0.007     0.248   198.696     0.258     0.000 .00000E+00 0.000E+00 0.000E+00 0.000E+00 0.000E+00 0.000E+00
BIGSUB   8        0    8.58278E-01   467.800     0.000   112.581    71.817    88.206     3.838   171.748     0.000   379.919     0.952     2.054     0.252     0.006     0.006     0.194   208.096     0.216     0.000 .00000E+00 0.000E+00 0.000E+00 0.000E+00 0.000E+00 0.000E+00
BIGSUB   9        0    8.38835E+00   467.800     0.000   112.656    70.578    84.477     0.560   153.315     0.311   377.886     1.232     1.912     0.235     0.006     0.005     0.182   224.206     0.200     0.000 .00000E+00 0.000E+00 0.000E+00 0.000E+00 0.000E+00 0.000E+00
BIGSUB  10        0    8.17761E+00   467.800     0.000   112.778    71.275    90.455     8.312   154.087     4.022   374.033     1.054     1.877     0.231     0.006     0.006     0.178   215.710     0.194     0.001 .00000E+00 0.000E+00 0.000E+00 0.000E+00 0.000E+00 0.000E+00
BIGSUB  11        0    8.14877E-01   467.800     0.000   112.786    72.164   105.466    21.510   137.023     9.025   370.939     1.005     1.597     0.196     0.005     0.008     0.150   224.496     0.219     0.001 .00000E+00 0.000E+00 0.000E+00 0.000E+00 0.000E+00 0.000E+00
BIGSUB   1        0    9.15760E+00   166.700     0.000   150.138    85.664    94.016     2.161    15.929     2.053    90.452     0.227     0.482     0.059     0.001     0.001     0.045    72.231     0.061     0.000 .00000E+00 0.000E+00 0.000E+00 0.000E+00 0.000E+00 0.000E+00
BIGSUB   2        0    9.14128E+00   166.700     0.000   150.406    79.862    78.035     0.480    17.864     1.636    97.320     0.441     0.439     0.054     0.002     0.000     0.042    77.737     0.046     0.000 .00000E+00 0.000E+00 0.000E+00 0.000E+00 0.000E+00 0.000E+00
BIGSUB   3        0    9.21095E+00   166.700     0.000   150.134    86.686    95.720     8.220    15.842    20.445   101.359     0.219     0.498     0.061     0.001     0.001     0.046    64.133     0.058     0.002 .00000E+00 0.000E+00 0.000E+00 0.000E+00 0.000E+00 0.000E+00
BIGSUB   4        0    9.18489E+00   166.700     0.000   150.327    80.542    78.330     0.184    19.899     0.000    96.003     0.340     0.491     0.060     0.002     0.001     0.047    76.066     0.047     0.000 .00000E+00 0.000E+00 0.000E+00 0.000E+00 0.000E+00 0.000E+00
BIGSUB   5        0    9.20438E+00   166.700     0.000   150.169    85.569    88.337     6.945    18.288    22.164   104.287     0.234     0.603     0.074     0.001     0.001     0.057    63.003     0.063     0.002 .00000E+00 0.000E+00 0.000E+00 0.000E+00 0.000E+00 0.000E+00
BIGSUB   6        0    9.17925E+00   166.700     0.000   150.239    83.132    80.702     3.028    20.085     9.215    98.108     0.265     0.574     0.070     0.001     0.001     0.054    68.435     0.061     0.000 .00000E+00 0.000E+00 0.000E+00 0.000E+00 0.000E+00 0.000E+00
BIGSUB   7        0    9.19956E+00   166.700     0.000   150.218    83.499    82.941     2.882    19.368     7.734    96.637     0.263     0.548     0.067     0.001     0.001     0.052    69.180     0.060     0.000 .00000E+00 0.000E+00 0.000E+00 0.000E+00 0.000E+00 0.000E+00
BIGSUB   8        0    9.58278E-01   166.700     0.000   150.346    81.131    78.839     0.602    19.958     0.000    94.685     0.272     0.480     0.059     0.002     0.001     0.046    74.646     0.052     0.000 .00000E+00 0.000E+00 0.000E+00 0.000E+00 0.000E+00 0.000E+00
BIGSUB   9        0    9.38835E+00   166.700     0.000   150.426    79.671    75.306     0.163    18.566     0.367    96.739     0.368     0.463     0.057     0.002     0.001     0.044    77.763     0.045     0.000 .00000E+00 0.000E+00 0.000E+00 0.000E+00 0.000E+00 0.000E+00
BIGSUB  10        0    9.17761E+00   166.700     0.000   150.556    80.961    81.042     1.842    18.742     5.071    98.894     0.321     0.460     0.057     0.002     0.001     0.044    74.852     0.045     0.001 .00000E+00 0.000E+00 0.000E+00 0.000E+00 0.000E+00 0.000E+00
BIGSUB  11        0    9.14877E-01   166.700     0.000   150.564    82.317    97.087     3.589    14.716    12.362   102.272     0.294     0.353     0.043     0.001     0.001     0.033    74.722     0.049     0.002 .00000E+00 0.000E+00 0.000E+00 0.000E+00 0.000E+00 0.000E+00
BIGSUB   1        0   10.15760E+00   234.500     0.000   163.349    79.662   104.843     0.712    47.343     1.049   140.395     1.148     2.274     0.279     0.005     0.002     0.213    91.760     0.139     0.000 .00000E+00 0.000E+00 0.000E+00 0.000E+00 0.000E+00 0.000E+00
BIGSUB   2        0   10.14128E+00   234.500     0.000   163.587    73.625    84.533     0.687    51.083     1.159   148.411     2.171     1.810     0.222     0.006     0.001     0.174    96.091     0.100     0.000 .00000E+00 0.000E+00 0.000E+00 0.000E+00 0.000E+00 0.000E+00
BIGSUB   3        0   10.21095E+00   234.500     0.000   163.345    80.694   106.184    10.568    47.603    14.904   144.242     1.080     2.382     0.292     0.005     0.002     0.222    80.796     0.127     0.001 .00000E+00 0.000E+00 0.000E+00 0.000E+00 0.000E+00 0.000E+00
BIGSUB   4        0   10.18489E+00   234.500     0.000   163.517    74.063    84.518     0.000    54.942     0.000   147.983     1.629     2.087     0.256     0.007     0.002     0.199    93.011     0.099     0.000 .00000E+00 0.000E+00 0.000E+00 0.000E+00 0.000E+00 0.000E+00
BIGSUB   5        0   10.20438E+00   234.500     0.000   163.377    79.857    99.910     7.012    54.783    12.122   144.298     1.067     2.659     0.325     0.005     0.002     0.250    76.562     0.125     0.001 .00000E+00 0.000E+00 0.000E+00 0.000E+00 0.000E+00 0.000E+00
BIGSUB   6        0   10.17925E+00   234.500     0.000   163.439    77.359    91.974     0.840    58.380     2.643   142.505     1.234     2.500     0.306     0.005     0.002     0.237    81.107     0.110     0.000 .00000E+00 0.000E+00 0.000E+00 0.000E+00 0.000E+00 0.000E+00
BIGSUB   7        0   10.19956E+00   234.500     0.000   163.420    77.665    94.122     0.994    56.351     2.653   142.266     1.248     2.435     0.298     0.005     0.002     0.230    82.905     0.112     0.000 .00000E+00 0.000E+00 0.000E+00 0.000E+00 0.000E+00 0.000E+00
BIGSUB   8        0   10.58278E-01   234.500     0.000   163.534    74.744    86.066     0.000    55.617     0.000   146.456     1.302     2.118     0.260     0.006     0.002     0.201    90.761     0.104     0.000 .00000E+00 0.000E+00 0.000E+00 0.000E+00 0.000E+00 0.000E+00
BIGSUB   9        0   10.38835E+00   234.500     0.000   163.605    73.353    81.496     0.213    52.479     0.277   148.556     1.803     1.955     0.240     0.007     0.001     0.187    95.764     0.098     0.000 .00000E+00 0.000E+00 0.000E+00 0.000E+00 0.000E+00 0.000E+00
BIGSUB  10        0   10.17761E+00   234.500     0.000   163.721    74.482    87.287     2.759    52.452     3.727   148.577     1.546     1.978     0.243     0.006     0.002     0.189    92.175     0.098     0.001 .00000E+00 0.000E+00 0.000E+00 0.000E+00 0.000E+00 0.000E+00
BIGSUB  11        0   10.14877E-01   234.500     0.000   163.729    76.070   105.189     5.183    44.306     8.708   147.918     1.454     1.538     0.189     0.005     0.002     0.146    94.436     0.109     0.001 .00000E+00 0.000E+00 0.000E+00 0.000E+00 0.000E+00 0.000E+00
BIGSUB   1        0   11.15760E+00   180.900     0.000   149.796    81.304   105.055     0.427    24.770     0.561   100.256     1.076     1.807     0.221     0.002     0.001     0.170    74.726     0.124     0.000 .00000E+00 0.000E+00 0.000E+00 0.000E+00 0.000E+00 0.000E+00
BIGSUB   2        0   11.14128E+00   180.900     0.000   149.972    74.233    82.696     0.469    25.477     0.534   109.404     2.018     1.368     0.168     0.002     0.001     0.132    83.328     0.090     0.000 .00000E+00 0.000E+00 0.000E+00 0.000E+00 0.000E+00 0.000E+00
BIGSUB   3        0   11.21095E+00   180.900     0.000   149.793    82.669   106.241     7.342    25.124     9.314   101.502     1.012     1.902     0.233     0.002     0.001     0.178    66.249     0.110     0.001 .00000E+00 0.000E+00 0.000E+00 0.000E+00 0.000E+00 0.000E+00
BIGSUB   4        0   11.18489E+00   180.900     0.000   149.920    74.742    82.411     0.000    27.816     0.000   109.000     1.521     1.614     0.198     0.003     0.001     0.155    81.162     0.090     0.000 .00000E+00 0.000E+00 0.000E+00 0.000E+00 0.000E+00 0.000E+00
BIGSUB   5        0   11.20438E+00   180.900     0.000   149.816    82.388   100.670     4.867    30.585     4.483    98.580     0.970     2.153     0.263     0.002     0.001     0.203    62.804     0.106     0.000 .00000E+00 0.000E+00 0.000E+00 0.000E+00 0.000E+00 0.000E+00
BIGSUB   6        0   11.17925E+00   180.900     0.000   149.862    79.397    93.592     0.199    32.606     0.261   101.060     1.162     2.071     0.254     0.002     0.001     0.196    67.887     0.092     0.000 .00000E+00 0.000E+00 0.000E+00 0.000E+00 0.000E+00 0.000E+00
BIGSUB   7        0   11.19956E+00   180.900     0.000   149.848    79.564    94.899     0.688    31.118     0.754   101.663     1.184     2.011     0.246     0.002     0.001     0.191    69.499     0.098     0.000 .00000E+00 0.000E+00 0.000E+00 0.000E+00 0.000E+00 0.000E+00
BIGSUB   8        0   11.58278E-01   180.900     0.000   149.933    75.908    84.544     0.000    28.785     0.000   107.295     1.228     1.716     0.210     0.003     0.001     0.163    78.449     0.093     0.000 .00000E+00 0.000E+00 0.000E+00 0.000E+00 0.000E+00 0.000E+00
BIGSUB   9        0   11.38835E+00   180.900     0.000   149.985    73.851    79.540     0.155    26.237     0.203   109.859     1.675     1.484     0.182     0.003     0.001     0.143    83.390     0.088     0.000 .00000E+00 0.000E+00 0.000E+00 0.000E+00 0.000E+00 0.000E+00
BIGSUB  10        0   11.17761E+00   180.900     0.000   150.071    75.022    85.261     1.998    26.257     2.663   109.492     1.435     1.523     0.187     0.003     0.001     0.146    80.379     0.089     0.000 .00000E+00 0.000E+00 0.000E+00 0.000E+00 0.000E+00 0.000E+00
BIGSUB  11        0   11.14877E-01   180.900     0.000   150.076    76.752   103.898     4.044    21.824     4.137   106.649     1.353     1.207     0.148     0.002     0.001     0.115    80.282     0.096     0.000 .00000E+00 0.000E+00 0.000E+00 0.000E+00 0.000E+00 0.000E+00
BIGSUB   1        0   12.15760E+00   309.800     0.000   145.780   100.971   106.947     6.792    46.104     0.636   199.783     3.625     5.133     0.629     0.002     0.001     0.483   152.858     0.288     0.000 .00000E+00 0.000E+00 0.000E+00 0.000E+00 0.000E+00 0.000E+00
BIGSUB   2        0   12.14128E+00   309.800     0.000   145.848    94.625    88.277     1.547    47.531     0.718   207.126     7.013     3.840     0.471     0.002     0.001     0.372   158.816     0.214     0.000 .00000E+00 0.000E+00 0.000E+00 0.000E+00 0.000E+00 0.000E+00
BIGSUB   3        0   12.21095E+00   309.800     0.000   145.779   102.479   107.627    23.250    46.218    10.138   192.304     3.309     5.242     0.642     0.002     0.002     0.490   135.157     0.249     0.001 .00000E+00 0.000E+00 0.000E+00 0.000E+00 0.000E+00 0.000E+00
BIGSUB   4        0   12.18489E+00   309.800     0.000   145.828    95.276    88.855     0.000    52.060     0.000   206.574     5.256     4.583     0.562     0.003     0.001     0.440   154.497     0.208     0.000 .00000E+00 0.000E+00 0.000E+00 0.000E+00 0.000E+00 0.000E+00
BIGSUB   5        0   12.20438E+00   309.800     0.000   145.788   101.939   100.131    21.821    53.344     8.193   193.978     2.849     5.534     0.677     0.002     0.002     0.521   131.761     0.260     0.001 .00000E+00 0.000E+00 0.000E+00 0.000E+00 0.000E+00 0.000E+00
BIGSUB   6        0   12.17925E+00   309.800     0.000   145.806    99.212    92.827    10.976    58.058     0.858   199.772     3.573     5.472     0.670     0.002     0.002     0.519   140.572     0.263     0.000 .00000E+00 0.000E+00 0.000E+00 0.000E+00 0.000E+00 0.000E+00
BIGSUB   7        0   12.19956E+00   309.800     0.000   145.800    99.414    94.921    10.071    56.087     0.997   199.896     3.726     5.403     0.661     0.002     0.002     0.512   142.541     0.263     0.000 .00000E+00 0.000E+00 0.000E+00 0.000E+00 0.000E+00 0.000E+00
BIGSUB   8        0   12.58278E-01   309.800     0.000   145.833    96.273    90.247     1.191    54.249     0.000   205.154     4.223     4.936     0.605     0.002     0.002     0.471   150.853     0.218     0.000 .00000E+00 0.000E+00 0.000E+00 0.000E+00 0.000E+00 0.000E+00
BIGSUB   9        0   12.38835E+00   309.800     0.000   145.853    94.357    85.414     0.377    48.990     0.231   207.803     5.821     4.203     0.515     0.002     0.001     0.405   158.557     0.211     0.000 .00000E+00 0.000E+00 0.000E+00 0.000E+00 0.000E+00 0.000E+00
BIGSUB  10        0   12.17761E+00   309.800     0.000   145.886    95.498    90.984     4.917    48.933     2.997   205.208     4.964     4.343     0.532     0.002     0.001     0.416   153.091     0.207     0.001 .00000E+00 0.000E+00 0.000E+00 0.000E+00 0.000E+00 0.000E+00
BIGSUB  11        0   12.14877E-01   309.800     0.000   145.888    96.910   107.861    11.899    40.372     5.718   201.196     4.712     3.529     0.433     0.002     0.002     0.335   154.708     0.220     0.001 .00000E+00 0.000E+00 0.000E+00 0.000E+00 0.000E+00 0.000E+00
BIGSUB   1        0 2013.15760E+00  3096.300     0.000  1498.413   954.974   106.947    57.805   606.836    33.578  2110.663    19.200    43.509     5.320     0.025     0.028     4.153  1466.679     1.967     0.004 .00000E+00 0.000E+00 0.000E+00 0.000E+00 0.000E+00 0.000E+00
BIGSUB   2        0 2013.14128E+00  3096.300     0.000  1499.553   895.593    88.277    21.938   626.634    11.984  2185.118    40.766    45.384     5.550     0.029     0.022     4.445  1545.128     1.664     0.002 .00000E+00 0.000E+00 0.000E+00 0.000E+00 0.000E+00 0.000E+00
BIGSUB   3        0 2013.21095E+00  3096.300     0.000  1498.398   966.679   107.627   209.672   618.991   181.551  2103.888    16.960    41.861     5.118     0.023     0.030     3.978  1291.562     1.749     0.021 .00000E+00 0.000E+00 0.000E+00 0.000E+00 0.000E+00 0.000E+00
BIGSUB   4        0 2013.18489E+00  3096.300     0.000  1499.217   897.698    88.855    13.087   660.565     0.000  2176.552    29.077    44.344     5.423     0.031     0.024     4.322  1514.997     1.653     0.000 .00000E+00 0.000E+00 0.000E+00 0.000E+00 0.000E+00 0.000E+00
BIGSUB   5        0 2013.20438E+00  3096.300     0.000  1498.546   961.465   100.131   182.796   701.492   152.277  2104.138    13.883    40.157     4.909     0.022     0.035     3.839  1239.987     1.709     0.017 .00000E+00 0.000E+00 0.000E+00 0.000E+00 0.000E+00 0.000E+00
BIGSUB   6        0 2013.17925E+00  3096.300     0.000  1498.845   933.723    92.827    83.719   735.453    54.730  2127.121    17.468    40.942     5.006     0.026     0.033     3.953  1331.955     1.728     0.006 .00000E+00 0.000E+00 0.000E+00 0.000E+00 0.000E+00 0.000E+00
BIGSUB   7        0 2013.19956E+00  3096.300     0.000  1498.754   935.993    94.921    80.383   712.110    52.092  2125.818    18.440    41.550     5.081     0.026     0.032     4.006  1356.831     1.761     0.005 .00000E+00 0.000E+00 0.000E+00 0.000E+00 0.000E+00 0.000E+00
BIGSUB   8        0 2013.58278E-01  3096.300     0.000  1499.298   905.650    90.247    22.482   684.137     0.000  2158.934    22.545    42.495     5.197     0.030     0.028     4.123  1473.248     1.691     0.000 .00000E+00 0.000E+00 0.000E+00 0.000E+00 0.000E+00 0.000E+00
BIGSUB   9        0 2013.38835E+00  3096.300     0.000  1499.637   891.952    85.414    13.972   640.086     3.269  2187.601    33.719    45.164     5.523     0.030     0.023     4.414  1543.298     1.645     0.001 .00000E+00 0.000E+00 0.000E+00 0.000E+00 0.000E+00 0.000E+00
BIGSUB  10        0 2013.17761E+00  3096.300     0.000  1500.192   902.007    90.984    55.295   636.955    42.244  2175.971    28.134    42.933     5.250     0.030     0.026     4.179  1493.522     1.615     0.012 .00000E+00 0.000E+00 0.000E+00 0.000E+00 0.000E+00 0.000E+00
BIGSUB  11        0 2013.14877E-01  3096.301     0.000  1500.227   922.773   107.861   107.107   558.617    92.490  2156.441    27.401    37.306     4.561     0.026     0.033     3.611  1499.219     1.676     0.020 .00000E+00 0.000E+00 0.000E+00 0.000E+00 0.000E+00 0.000E+00
BIGSUB   1        0    1.15760E+00   549.600     0.000   142.913   100.130   103.248    21.263   148.942     3.580   440.097     7.146    27.374     3.343     0.003     0.010     2.627   287.309     0.435     0.001 .00000E+00 0.000E+00 0.000E+00 0.000E+00 0.000E+00 0.000E+00
BIGSUB   2        0    1.14128E+00   549.600     0.000   142.790    95.446    90.681     7.562   169.746     1.706   452.627    15.037    30.183     3.686     0.004     0.009     2.968   281.088     0.370     0.001 .00000E+00 0.000E+00 0.000E+00 0.000E+00 0.000E+00 0.000E+00
BIGSUB   3        0    1.21095E+00   549.600     0.000   142.915   101.237   104.078    55.190   148.330    23.061   425.413     6.241    25.828     3.154     0.003     0.011     2.471   253.046     0.401     0.005 .00000E+00 0.000E+00 0.000E+00 0.000E+00 0.000E+00 0.000E+00
BIGSUB   4        0    1.18489E+00   549.600     0.000   142.827    95.523    87.911     7.793   176.570     0.000   453.589    10.624    28.421     3.471     0.004     0.010     2.784   276.976     0.394     0.000 .00000E+00 0.000E+00 0.000E+00 0.000E+00 0.000E+00 0.000E+00
BIGSUB   5        0    1.20438E+00   549.600     0.000   142.899   100.384    95.672    50.404   165.832    22.908   432.223     4.992    23.804     2.906     0.003     0.012     2.295   242.628     0.393     0.004 .00000E+00 0.000E+00 0.000E+00 0.000E+00 0.000E+00 0.000E+00
BIGSUB   6        0    1.17925E+00   549.600     0.000   142.867    98.112    88.687    27.508   178.715    10.167   444.533     6.314    24.771     3.025     0.003     0.011     2.410   255.264     0.421     0.001 .00000E+00 0.000E+00 0.000E+00 0.000E+00 0.000E+00 0.000E+00
BIGSUB   7        0    1.19956E+00   549.600     0.000   142.877    98.411    91.170    26.444   173.520     8.366   442.941     6.690    25.380     3.100     0.003     0.011     2.465   260.684     0.426     0.001 .00000E+00 0.000E+00 0.000E+00 0.000E+00 0.000E+00 0.000E+00
BIGSUB   8        0    1.58278E-01   549.600     0.000   142.818    96.116    88.085    11.019   177.421     0.000   450.929     8.206    26.617     3.251     0.004     0.011     2.597   273.417     0.413     0.000 .00000E+00 0.000E+00 0.000E+00 0.000E+00 0.000E+00 0.000E+00
BIGSUB   9        0    1.38835E+00   549.600     0.000   142.781    95.194    87.816     5.619   173.992     0.385   453.375    12.432    29.337     3.583     0.004     0.010     2.880   278.955     0.366     0.000 .00000E+00 0.000E+00 0.000E+00 0.000E+00 0.000E+00 0.000E+00
BIGSUB  10        0    1.17761E+00   549.600     0.000   142.721    95.784    91.565    16.320   170.231     5.392   449.043    10.331    27.500     3.359     0.004     0.010     2.690   273.180     0.375     0.003 .00000E+00 0.000E+00 0.000E+00 0.000E+00 0.000E+00 0.000E+00
BIGSUB  11        0    1.14877E-01   549.600     0.000   142.717    97.080   108.421    30.233   145.522    13.101   442.248    10.113    24.123     2.946     0.004     0.011     2.348   283.122     0.374     0.005 .00000E+00 0.000E+00 0.000E+00 0.000E+00 0.000E+00 0.000E+00
BIGSUB   1        0    2.15760E+00   351.600     0.000   144.291   102.037   104.860     9.056    61.265     6.266   243.602     0.205     0.629     0.077     0.000     0.001     0.061   175.764     0.009     0.000 .00000E+00 0.000E+00 0.000E+00 0.000E+00 0.000E+00 0.000E+00
BIGSUB   2        0    2.14128E+00   351.600     0.000   144.161    98.758    92.521     3.006    71.864     1.697   247.160     0.543     0.822     0.100     0.000     0.000     0.081   173.496     0.007     0.000 .00000E+00 0.000E+00 0.000E+00 0.000E+00 0.000E+00 0.000E+00
BIGSUB   3        0    2.21095E+00   351.600     0.000   144.293   102.612   105.264    29.326    61.067    24.236   241.876     0.198     0.623     0.076     0.000     0.001     0.060   155.542     0.010     0.003 .00000E+00 0.000E+00 0.000E+00 0.000E+00 0.000E+00 0.000E+00
BIGSUB   4        0    2.18489E+00   351.600     0.000   144.200    98.873    89.687     2.097    74.701     0.000   246.310     0.382     0.828     0.101     0.000     0.000     0.081   171.539     0.006     0.000 .00000E+00 0.000E+00 0.000E+00 0.000E+00 0.000E+00 0.000E+00
BIGSUB   5        0    2.20438E+00   351.600     0.000   144.276   101.611    96.509    25.754    71.265    23.060   245.146     0.165     0.665     0.081     0.000     0.001     0.064   149.911     0.009     0.003 .00000E+00 0.000E+00 0.000E+00 0.000E+00 0.000E+00 0.000E+00
BIGSUB   6        0    2.17925E+00   351.600     0.000   144.242   100.064    89.690    12.241    77.899    11.359   247.477     0.222     0.756     0.092     0.000     0.001     0.074   157.788     0.007     0.001 .00000E+00 0.000E+00 0.000E+00 0.000E+00 0.000E+00 0.000E+00
BIGSUB   7        0    2.19956E+00   351.600     0.000   144.252   100.377    92.267    11.800    75.000    10.649   246.896     0.232     0.744     0.091     0.000     0.001     0.072   160.833     0.008     0.001 .00000E+00 0.000E+00 0.000E+00 0.000E+00 0.000E+00 0.000E+00
BIGSUB   8        0    2.58278E-01   351.600     0.000   144.190    99.222    89.687     3.510    75.705     0.000   244.751     0.295     0.804     0.098     0.000     0.001     0.078   168.925     0.007     0.000 .00000E+00 0.000E+00 0.000E+00 0.000E+00 0.000E+00 0.000E+00
BIGSUB   9        0    2.38835E+00   351.600     0.000   144.151    98.531    89.687     1.874    73.990     0.373   247.170     0.449     0.846     0.103     0.000     0.000     0.083   172.746     0.006     0.000 .00000E+00 0.000E+00 0.000E+00 0.000E+00 0.000E+00 0.000E+00
BIGSUB  10        0    2.17761E+00   351.600     0.000   144.087    99.003    93.286     7.668    71.726     5.255   245.929     0.371     0.796     0.097     0.001     0.001     0.078   168.680     0.011     0.002 .00000E+00 0.000E+00 0.000E+00 0.000E+00 0.000E+00 0.000E+00
BIGSUB  11        0    2.14877E-01   351.600     0.000   144.083   100.116   109.989    15.000    59.134    12.977   245.620     0.359     0.625     0.076     0.000     0.001     0.061   172.969     0.014     0.004 .00000E+00 0.000E+00 0.000E+00 0.000E+00 0.000E+00 0.000E+00
BIGSUB   1        0    3.15760E+00   222.800     0.000   167.274   133.048    72.676     1.975    32.892     5.620   128.514     0.011     0.033     0.004     0.000     0.001     0.003    89.630     0.002     0.000 .00000E+00 0.000E+00 0.000E+00 0.000E+00 0.000E+00 0.000E+00
BIGSUB   2        0    3.14128E+00   222.800     0.000   167.203   128.770    56.209     0.603    37.790     1.834   135.458     0.026     0.038     0.005     0.000     0.000     0.004    95.710     0.002     0.000 .00000E+00 0.000E+00 0.000E+00 0.000E+00 0.000E+00 0.000E+00
BIGSUB   3        0    3.21095E+00   222.800     0.000   167.275   134.227    75.090     9.854    32.899    25.883   138.562     0.010     0.030     0.004     0.000     0.001     0.003    78.549     0.002     0.002 .00000E+00 0.000E+00 0.000E+00 0.000E+00 0.000E+00 0.000E+00
BIGSUB   4        0    3.18489E+00   222.800     0.000   167.224   128.816    54.035     0.000    39.028     0.000   133.449     0.018     0.036     0.004     0.000     0.000     0.003    94.334     0.002     0.000 .00000E+00 0.000E+00 0.000E+00 0.000E+00 0.000E+00 0.000E+00
BIGSUB   5        0    3.20438E+00   222.800     0.000   167.265   133.673    67.040     7.754    37.526    23.201   138.042     0.008     0.027     0.003     0.000     0.001     0.003    76.231     0.003     0.001 .00000E+00 0.000E+00 0.000E+00 0.000E+00 0.000E+00 0.000E+00
BIGSUB   6        0    3.17925E+00   222.800     0.000   167.247   131.788    58.452     2.576    40.599     8.585   132.250     0.010     0.028     0.003     0.000     0.001     0.003    82.552     0.002     0.000 .00000E+00 0.000E+00 0.000E+00 0.000E+00 0.000E+00 0.000E+00
BIGSUB   7        0    3.19956E+00   222.800     0.000   167.253   131.968    60.810     2.573    39.269     8.203   131.771     0.011     0.029     0.004     0.000     0.001     0.003    83.804     0.002     0.000 .00000E+00 0.000E+00 0.000E+00 0.000E+00 0.000E+00 0.000E+00
BIGSUB   8        0    3.58278E-01   222.800     0.000   167.219   129.495    55.719     0.000    39.469     0.000   131.116     0.014     0.033     0.004     0.000     0.000     0.003    91.500     0.002     0.000 .00000E+00 0.000E+00 0.000E+00 0.000E+00 0.000E+00 0.000E+00
BIGSUB   9        0    3.38835E+00   222.800     0.000   167.198   128.380    53.198     0.174    38.772     0.423   134.962     0.022     0.038     0.005     0.000     0.000     0.004    95.691     0.002     0.000 .00000E+00 0.000E+00 0.000E+00 0.000E+00 0.000E+00 0.000E+00
BIGSUB  10        0    3.17761E+00   222.800     0.000   167.163   129.122    57.750     2.199    37.697     5.807   137.063     0.018     0.035     0.004     0.000     0.000     0.003    93.238     0.002     0.001 .00000E+00 0.000E+00 0.000E+00 0.000E+00 0.000E+00 0.000E+00
BIGSUB  11        0    3.14877E-01   222.800     0.000   167.161   131.207    75.213     4.658    31.875    14.034   140.212     0.018     0.030     0.004     0.000     0.001     0.003    93.660     0.004     0.006 .00000E+00 0.000E+00 0.000E+00 0.000E+00 0.000E+00 0.000E+00
BIGSUB   1        0    4.15760E+00   466.600     0.000   131.806   118.314   109.385     9.446    64.842     1.873   297.142     0.015     0.042     0.005     0.001     0.002     0.004   230.084     0.062     0.000 .00000E+00 0.000E+00 0.000E+00 0.000E+00 0.000E+00 0.000E+00
BIGSUB   2        0    4.14128E+00   466.600     0.000   131.838   115.761    92.961     2.175    64.125     1.334   303.027     0.030     0.044     0.005     0.002     0.001     0.004   237.453     0.048     0.000 .00000E+00 0.000E+00 0.000E+00 0.000E+00 0.000E+00 0.000E+00
BIGSUB   3        0    4.21095E+00   466.600     0.000   131.805   118.747   109.783    36.128    65.650    18.647   289.343     0.013     0.038     0.005     0.001     0.002     0.004   203.885     0.054     0.000 .00000E+00 0.000E+00 0.000E+00 0.000E+00 0.000E+00 0.000E+00
BIGSUB   4        0    4.18489E+00   466.600     0.000   131.828   115.822    92.957     0.000    68.851     0.000   301.930     0.022     0.042     0.005     0.002     0.001     0.004   233.001     0.049     0.000 .00000E+00 0.000E+00 0.000E+00 0.000E+00 0.000E+00 0.000E+00
BIGSUB   5        0    4.20438E+00   466.600     0.000   131.809   118.502   100.970    31.315    78.843    12.663   288.226     0.010     0.034     0.004     0.001     0.003     0.003   195.710     0.055     0.000 .00000E+00 0.000E+00 0.000E+00 0.000E+00 0.000E+00 0.000E+00
BIGSUB   6        0    4.17925E+00   466.600     0.000   131.818   117.498    94.145    13.201    84.235     2.904   293.844     0.014     0.038     0.005     0.002     0.003     0.004   206.235     0.054     0.000 .00000E+00 0.000E+00 0.000E+00 0.000E+00 0.000E+00 0.000E+00
BIGSUB   7        0    4.19956E+00   466.600     0.000   131.815   117.603    96.739    12.642    80.433     3.092   294.514     0.015     0.039     0.005     0.002     0.002     0.004   210.535     0.055     0.000 .00000E+00 0.000E+00 0.000E+00 0.000E+00 0.000E+00 0.000E+00
BIGSUB   8        0    4.58278E-01   466.600     0.000   131.830   116.236    94.174     1.674    74.548     0.000   300.108     0.018     0.042     0.005     0.002     0.002     0.004   225.430     0.051     0.000 .00000E+00 0.000E+00 0.000E+00 0.000E+00 0.000E+00 0.000E+00
BIGSUB   9        0    4.38835E+00   466.600     0.000   131.840   115.571    90.093     0.621    65.831     0.347   303.651     0.025     0.043     0.005     0.002     0.001     0.004   237.404     0.048     0.000 .00000E+00 0.000E+00 0.000E+00 0.000E+00 0.000E+00 0.000E+00
BIGSUB  10        0    4.17761E+00   466.600     0.000   131.855   115.985    95.259     7.573    65.319     4.512   300.063     0.021     0.040     0.005     0.002     0.001     0.004   229.931     0.048     0.000 .00000E+00 0.000E+00 0.000E+00 0.000E+00 0.000E+00 0.000E+00
BIGSUB  11        0    4.14877E-01   466.600     0.000   131.856   116.987   111.559    16.701    54.480    10.256   297.023     0.020     0.033     0.004     0.001     0.002     0.003   231.690     0.048     0.002 .00000E+00 0.000E+00 0.000E+00 0.000E+00 0.000E+00 0.000E+00
BIGSUB   1        0    5.15760E+00   221.200     0.000   141.256    81.705   107.164     4.026    35.977     4.091   148.685     0.017     0.046     0.006     0.004     0.002     0.004   108.268     0.136     0.000 .00000E+00 0.000E+00 0.000E+00 0.000E+00 0.000E+00 0.000E+00
BIGSUB   2        0    5.14128E+00   221.200     0.000   141.456    76.635    92.122     0.935    39.193     1.461   155.379     0.035     0.045     0.006     0.005     0.001     0.004   114.614     0.129     0.000 .00000E+00 0.000E+00 0.000E+00 0.000E+00 0.000E+00 0.000E+00
BIGSUB   3        0    5.21095E+00   221.200     0.000   141.254    83.056   107.733    14.279    35.905    22.017   155.993     0.016     0.043     0.005     0.003     0.002     0.004    96.859     0.120     0.000 .00000E+00 0.000E+00 0.000E+00 0.000E+00 0.000E+00 0.000E+00
BIGSUB   4        0    5.18489E+00   221.200     0.000   141.397    77.307    91.843     0.198    41.660     0.000   153.887     0.025     0.044     0.005     0.005     0.002     0.004   112.160     0.130     0.000 .00000E+00 0.000E+00 0.000E+00 0.000E+00 0.000E+00 0.000E+00
BIGSUB   5        0    5.20438E+00   221.200     0.000   141.280    82.679    98.991    12.711    40.336    18.817   155.264     0.014     0.042     0.005     0.003     0.002     0.004    95.056     0.116     0.000 .00000E+00 0.000E+00 0.000E+00 0.000E+00 0.000E+00 0.000E+00
BIGSUB   6        0    5.17925E+00   221.200     0.000   141.332    80.228    92.057     5.854    43.398     7.382   153.950     0.017     0.040     0.005     0.004     0.002     0.004   102.691     0.124     0.000 .00000E+00 0.000E+00 0.000E+00 0.000E+00 0.000E+00 0.000E+00
BIGSUB   7        0    5.19956E+00   221.200     0.000   141.316    80.352    94.630     5.584    42.031     6.774   153.233     0.017     0.041     0.005     0.004     0.002     0.004   103.966     0.126     0.000 .00000E+00 0.000E+00 0.000E+00 0.000E+00 0.000E+00 0.000E+00
BIGSUB   8        0    5.58278E-01   221.200     0.000   141.411    78.061    91.895     1.315    42.431     0.000   153.514     0.020     0.041     0.005     0.005     0.002     0.004   110.963     0.131     0.000 .00000E+00 0.000E+00 0.000E+00 0.000E+00 0.000E+00 0.000E+00
BIGSUB   9        0    5.38835E+00   221.200     0.000   141.470    76.415    89.346     0.234    40.135     0.387   155.019     0.028     0.044     0.006     0.005     0.001     0.004   114.435     0.129     0.000 .00000E+00 0.000E+00 0.000E+00 0.000E+00 0.000E+00 0.000E+00
BIGSUB  10        0    5.17761E+00   221.200     0.000   141.568    77.429    94.528     3.011    39.773     4.923   155.996     0.024     0.042     0.005     0.005     0.002     0.004   110.996     0.126     0.000 .00000E+00 0.000E+00 0.000E+00 0.000E+00 0.000E+00 0.000E+00
BIGSUB  11        0    5.14877E-01   221.200     0.000   141.574    78.690   110.429     6.925    33.968    10.890   157.687     0.023     0.036     0.004     0.004     0.002     0.003   112.217     0.126     0.001 .00000E+00 0.000E+00 0.000E+00 0.000E+00 0.000E+00 0.000E+00
BIGSUB   1        0    6.15760E+00   204.500     0.000   138.028    86.833    97.326     4.334    27.102     3.673   127.841     0.015     0.041     0.005     0.003     0.001     0.004    96.729     0.126     0.000 .00000E+00 0.000E+00 0.000E+00 0.000E+00 0.000E+00 0.000E+00
BIGSUB   2        0    6.14128E+00   204.500     0.000   138.268    81.821    84.693     0.881    30.751     1.172   131.509     0.029     0.042     0.005     0.004     0.001     0.004    99.486     0.108     0.000 .00000E+00 0.000E+00 0.000E+00 0.000E+00 0.000E+00 0.000E+00
BIGSUB   3        0    6.21095E+00   204.500     0.000   138.025    88.149    98.205    13.743    27.037    19.869   133.823     0.013     0.039     0.005     0.002     0.001     0.004    85.753     0.109     0.001 .00000E+00 0.000E+00 0.000E+00 0.000E+00 0.000E+00 0.000E+00
BIGSUB   4        0    6.18489E+00   204.500     0.000   138.197    82.117    82.481     1.014    32.476     0.000   131.793     0.021     0.040     0.005     0.004     0.001     0.004    99.263     0.111     0.000 .00000E+00 0.000E+00 0.000E+00 0.000E+00 0.000E+00 0.000E+00
BIGSUB   5        0    6.20438E+00   204.500     0.000   138.056    87.775    89.843    12.450    30.485    18.012   133.160     0.012     0.039     0.005     0.002     0.002     0.004    83.642     0.104     0.000 .00000E+00 0.000E+00 0.000E+00 0.000E+00 0.000E+00 0.000E+00
BIGSUB   6        0    6.17925E+00   204.500     0.000   138.119    85.227    82.990     6.108    32.891     6.119   129.682     0.014     0.038     0.005     0.003     0.002     0.003    90.206     0.108     0.000 .00000E+00 0.000E+00 0.000E+00 0.000E+00 0.000E+00 0.000E+00
BIGSUB   7        0    6.19956E+00   204.500     0.000   138.100    85.358    85.444     5.802    31.886     5.951   129.770     0.014     0.038     0.005     0.003     0.002     0.003    91.485     0.111     0.000 .00000E+00 0.000E+00 0.000E+00 0.000E+00 0.000E+00 0.000E+00
BIGSUB   8        0    6.58278E-01   204.500     0.000   138.214    82.783    82.598     1.742    32.587     0.000   130.364     0.016     0.037     0.005     0.004     0.001     0.003    97.666     0.113     0.000 .00000E+00 0.000E+00 0.000E+00 0.000E+00 0.000E+00 0.000E+00
BIGSUB   9        0    6.38835E+00   204.500     0.000   138.285    81.617    82.017     0.225    31.596     0.351   131.408     0.024     0.041     0.005     0.004     0.001     0.004    99.410     0.107     0.000 .00000E+00 0.000E+00 0.000E+00 0.000E+00 0.000E+00 0.000E+00
BIGSUB  10        0    6.17761E+00   204.500     0.000   138.402    82.392    86.110     3.326    31.190     4.510   133.011     0.020     0.039     0.005     0.004     0.001     0.004    97.030     0.107     0.000 .00000E+00 0.000E+00 0.000E+00 0.000E+00 0.000E+00 0.000E+00
BIGSUB  11        0    6.14877E-01   204.500     0.000   138.409    83.322   102.503     7.014    26.182     9.311   132.920     0.020     0.033     0.004     0.003     0.001     0.003    96.845     0.107     0.001 .00000E+00 0.000E+00 0.000E+00 0.000E+00 0.000E+00 0.000E+00
BIGSUB   1        0    7.15760E+00   729.100     0.000   111.560    68.064   110.988    14.243   418.457     3.151   623.987     1.084     3.136     0.385     0.010     0.021     0.288   202.041     0.351     0.000 .00000E+00 0.000E+00 0.000E+00 0.000E+00 0.000E+00 0.000E+00
BIGSUB   2        0    7.14128E+00   729.100     0.000   111.617    64.332    98.564     5.766   443.616     0.994   627.645     1.735     2.284     0.282     0.012     0.017     0.214   182.939     0.274     0.000 .00000E+00 0.000E+00 0.000E+00 0.000E+00 0.000E+00 0.000E+00
BIGSUB   3        0    7.21095E+00   729.100     0.000   111.559    69.336   111.394    41.557   418.418    16.487   609.532     0.918     2.971     0.364     0.009     0.022     0.271   173.477     0.290     0.001 .00000E+00 0.000E+00 0.000E+00 0.000E+00 0.000E+00 0.000E+00
BIGSUB   4        0    7.18489E+00   729.100     0.000   111.600    64.402    95.723     4.742   448.487     0.000   628.632     1.207     2.093     0.258     0.013     0.018     0.196   180.091     0.275     0.000 .00000E+00 0.000E+00 0.000E+00 0.000E+00 0.000E+00 0.000E+00
BIGSUB   5        0    7.20438E+00   729.100     0.000   111.566    69.203   102.571    35.296   436.251    13.921   612.413     0.811     2.571     0.315     0.008     0.023     0.238   161.227     0.268     0.000 .00000E+00 0.000E+00 0.000E+00 0.000E+00 0.000E+00 0.000E+00
BIGSUB   6        0    7.17925E+00   729.100     0.000   111.581    67.041    95.711    17.464   449.536     5.309   620.808     0.852     2.088     0.256     0.009     0.022     0.195   165.495     0.267     0.000 .00000E+00 0.000E+00 0.000E+00 0.000E+00 0.000E+00 0.000E+00
BIGSUB   7        0    7.19956E+00   729.100     0.000   111.577    67.109    98.309    17.317   444.294     4.916   620.801     0.889     2.212     0.272     0.009     0.021     0.206   171.142     0.277     0.000 .00000E+00 0.000E+00 0.000E+00 0.000E+00 0.000E+00 0.000E+00
BIGSUB   8        0    7.58278E-01   729.100     0.000   111.604    64.951    95.722     6.646   448.846     0.000   626.574     0.948     1.966     0.242     0.012     0.020     0.184   177.616     0.277     0.000 .00000E+00 0.000E+00 0.000E+00 0.000E+00 0.000E+00 0.000E+00
BIGSUB   9        0    7.38835E+00   729.100     0.000   111.621    64.114    95.724     4.135   447.926     0.314   629.249     1.424     2.214     0.273     0.013     0.017     0.207   180.962     0.272     0.000 .00000E+00 0.000E+00 0.000E+00 0.000E+00 0.000E+00 0.000E+00
BIGSUB  10        0    7.17761E+00   729.100     0.000   111.648    64.716    99.335    12.345   442.876     3.793   624.104     1.181     2.077     0.256     0.012     0.020     0.194   177.158     0.268     0.001 .00000E+00 0.000E+00 0.000E+00 0.000E+00 0.000E+00 0.000E+00
BIGSUB  11        0    7.14877E-01   729.100     0.000   111.650    65.889   116.074    23.457   417.642     7.858   614.696     1.180     1.928     0.238     0.011     0.029     0.179   188.619     0.278     0.001 .00000E+00 0.000E+00 0.000E+00 0.000E+00 0.000E+00 0.000E+00
BIGSUB   1        0    8.15760E+00   116.200     0.000   134.743    77.308    93.881     2.329     2.992     6.637    72.966     0.009     0.020     0.002     0.000     0.000     0.002    62.973     0.061     0.000 .00000E+00 0.000E+00 0.000E+00 0.000E+00 0.000E+00 0.000E+00
BIGSUB   2        0    8.14128E+00   116.200     0.000   134.718    72.407    80.573     1.138     3.600     1.513    80.295     0.024     0.028     0.004     0.000     0.000     0.003    75.068     0.073     0.000 .00000E+00 0.000E+00 0.000E+00 0.000E+00 0.000E+00 0.000E+00
BIGSUB   3        0    8.21095E+00   116.200     0.000   134.743    78.575    95.840     5.443     2.738    20.285    81.995     0.009     0.020     0.002     0.000     0.000     0.002    57.786     0.058     0.002 .00000E+00 0.000E+00 0.000E+00 0.000E+00 0.000E+00 0.000E+00
BIGSUB   4        0    8.18489E+00   116.200     0.000   134.725    72.424    77.890     1.176     3.756     0.000    78.095     0.017     0.027     0.003     0.000     0.000     0.003    74.264     0.073     0.000 .00000E+00 0.000E+00 0.000E+00 0.000E+00 0.000E+00 0.000E+00
BIGSUB   5        0    8.20438E+00   116.200     0.000   134.740    77.788    88.420     5.002     3.400    18.936    81.598     0.010     0.026     0.003     0.000     0.000     0.002    58.221     0.062     0.001 .00000E+00 0.000E+00 0.000E+00 0.000E+00 0.000E+00 0.000E+00
BIGSUB   6        0    8.17925E+00   116.200     0.000   134.734    75.408    80.581     2.982     3.931     9.093    78.945     0.012     0.028     0.003     0.000     0.000     0.003    65.428     0.068     0.000 .00000E+00 0.000E+00 0.000E+00 0.000E+00 0.000E+00 0.000E+00
BIGSUB   7        0    8.19956E+00   116.200     0.000   134.736    75.684    82.871     2.797     3.721     8.711    78.294     0.012     0.026     0.003     0.000     0.000     0.002    65.387     0.067     0.000 .00000E+00 0.000E+00 0.000E+00 0.000E+00 0.000E+00 0.000E+00
BIGSUB   8        0    8.58278E-01   116.200     0.000   134.724    73.036    78.472     1.455     3.773     0.000    76.490     0.013     0.026     0.003     0.000     0.000     0.002    72.581     0.072     0.000 .00000E+00 0.000E+00 0.000E+00 0.000E+00 0.000E+00 0.000E+00
BIGSUB   9        0    8.38835E+00   116.200     0.000   134.716    72.107    77.578     1.135     3.806     0.325    79.186     0.020     0.028     0.004     0.001     0.000     0.003    74.991     0.073     0.000 .00000E+00 0.000E+00 0.000E+00 0.000E+00 0.000E+00 0.000E+00
BIGSUB  10        0    8.17761E+00   116.200     0.000   134.704    72.784    81.621     2.104     3.701     4.294    81.859     0.016     0.026     0.003     0.000     0.000     0.002    73.564     0.072     0.001 .00000E+00 0.000E+00 0.000E+00 0.000E+00 0.000E+00 0.000E+00
BIGSUB  11        0    8.14877E-01   116.200     0.000   134.703    74.586    99.075     2.744     2.705    11.559    87.473     0.016     0.021     0.003     0.000     0.000     0.002    72.599     0.069     0.002 .00000E+00 0.000E+00 0.000E+00 0.000E+00 0.000E+00 0.000E+00
BIGSUB   1        0    9.15760E+00   109.600     0.000   137.851    59.977    92.918     0.224     7.289     1.306    52.307     0.081     0.188     0.023     0.001     0.000     0.018    43.377     0.071     0.000 .00000E+00 0.000E+00 0.000E+00 0.000E+00 0.000E+00 0.000E+00
BIGSUB   2        0    9.14128E+00   109.600     0.000   137.670    55.391    78.090     0.046     8.502     0.728    57.990     0.176     0.211     0.026     0.001     0.000     0.020    48.648     0.056     0.000 .00000E+00 0.000E+00 0.000E+00 0.000E+00 0.000E+00 0.000E+00
BIGSUB   3        0    9.21095E+00   109.600     0.000   137.854    61.317    95.728     2.759     7.449    11.479    58.479     0.079     0.197     0.024     0.001     0.000     0.018    38.490     0.067     0.001 .00000E+00 0.000E+00 0.000E+00 0.000E+00 0.000E+00 0.000E+00
BIGSUB   4        0    9.18489E+00   109.600     0.000   137.724    55.634    75.460     0.000     8.847     0.000    56.974     0.124     0.201     0.025     0.002     0.000     0.019    48.048     0.056     0.000 .00000E+00 0.000E+00 0.000E+00 0.000E+00 0.000E+00 0.000E+00
BIGSUB   5        0    9.20438E+00   109.600     0.000   137.830    60.551    89.799     1.232     9.238     7.206    54.869     0.082     0.225     0.028     0.001     0.000     0.021    37.498     0.070     0.000 .00000E+00 0.000E+00 0.000E+00 0.000E+00 0.000E+00 0.000E+00
BIGSUB   6        0    9.17925E+00   109.600     0.000   137.783    58.356    80.386     0.106     9.787     1.456    53.612     0.094     0.217     0.027     0.001     0.000     0.020    41.925     0.070     0.000 .00000E+00 0.000E+00 0.000E+00 0.000E+00 0.000E+00 0.000E+00
BIGSUB   7        0    9.19956E+00   109.600     0.000   137.797    58.635    82.324     0.217     9.287     1.632    53.735     0.094     0.210     0.026     0.001     0.000     0.020    42.386     0.070     0.000 .00000E+00 0.000E+00 0.000E+00 0.000E+00 0.000E+00 0.000E+00
BIGSUB   8        0    9.58278E-01   109.600     0.000   137.711    56.598    76.591     0.000     9.010     0.000    55.489     0.099     0.193     0.024     0.001     0.000     0.018    46.346     0.057     0.000 .00000E+00 0.000E+00 0.000E+00 0.000E+00 0.000E+00 0.000E+00
BIGSUB   9        0    9.38835E+00   109.600     0.000   137.657    55.050    74.840     0.083     8.771     0.170    57.957     0.145     0.209     0.026     0.002     0.000     0.020    48.946     0.056     0.000 .00000E+00 0.000E+00 0.000E+00 0.000E+00 0.000E+00 0.000E+00
BIGSUB  10        0    9.17761E+00   109.600     0.000   137.569    55.862    79.289     0.773     8.500     2.859    58.912     0.120     0.195     0.024     0.001     0.000     0.018    47.273     0.056     0.000 .00000E+00 0.000E+00 0.000E+00 0.000E+00 0.000E+00 0.000E+00
BIGSUB  11        0    9.14877E-01   109.600     0.000   137.563    57.810    98.294     0.295     6.918     5.638    58.907     0.118     0.162     0.020     0.001     0.000     0.015    45.798     0.057     0.000 .00000E+00 0.000E+00 0.000E+00 0.000E+00 0.000E+00 0.000E+00
BIGSUB   1        0   10.15760E+00    90.500     0.000   176.678    56.164    83.122     0.163     7.653     0.313    44.436     0.119     0.293     0.036     0.003     0.000     0.027    36.185     0.063     0.000 .00000E+00 0.000E+00 0.000E+00 0.000E+00 0.000E+00 0.000E+00
BIGSUB   2        0   10.14128E+00    90.500     0.000   176.573    50.321    68.576     0.111     8.793     0.161    49.615     0.253     0.296     0.036     0.004     0.000     0.028    40.564     0.046     0.000 .00000E+00 0.000E+00 0.000E+00 0.000E+00 0.000E+00 0.000E+00
BIGSUB   3        0   10.21095E+00    90.500     0.000   176.679    57.355    86.807     2.377     7.861     4.441    44.912     0.116     0.316     0.039     0.003     0.000     0.029    31.697     0.058     0.000 .00000E+00 0.000E+00 0.000E+00 0.000E+00 0.000E+00 0.000E+00
BIGSUB   4        0   10.18489E+00    90.500     0.000   176.604    50.624    65.892     0.000     9.209     0.000    49.293     0.180     0.311     0.038     0.005     0.000     0.029    40.013     0.046     0.000 .00000E+00 0.000E+00 0.000E+00 0.000E+00 0.000E+00 0.000E+00
BIGSUB   5        0   10.20438E+00    90.500     0.000   176.666    56.588    82.384     1.058    10.107     1.976    42.904     0.119     0.361     0.044     0.003     0.000     0.034    30.035     0.053     0.000 .00000E+00 0.000E+00 0.000E+00 0.000E+00 0.000E+00 0.000E+00
BIGSUB   6        0   10.17925E+00    90.500     0.000   176.638    53.523    72.563     0.076    10.569     0.147    45.081     0.136     0.349     0.043     0.004     0.000     0.033    33.991     0.053     0.000 .00000E+00 0.000E+00 0.000E+00 0.000E+00 0.000E+00 0.000E+00
BIGSUB   7        0   10.19956E+00    90.500     0.000   176.647    53.828    74.095     0.200     9.953     0.323    45.223     0.136     0.339     0.042     0.004     0.000     0.032    34.583     0.055     0.000 .00000E+00 0.000E+00 0.000E+00 0.000E+00 0.000E+00 0.000E+00
BIGSUB   8        0   10.58278E-01    90.500     0.000   176.597    51.409    66.927     0.000     9.481     0.000    48.660     0.145     0.311     0.038     0.004     0.000     0.029    39.063     0.053     0.000 .00000E+00 0.000E+00 0.000E+00 0.000E+00 0.000E+00 0.000E+00
BIGSUB   9        0   10.38835E+00    90.500     0.000   176.565    49.888    65.318     0.060     9.065     0.115    50.023     0.208     0.309     0.038     0.005     0.000     0.029    40.781     0.046     0.000 .00000E+00 0.000E+00 0.000E+00 0.000E+00 0.000E+00 0.000E+00
BIGSUB  10        0   10.17761E+00    90.500     0.000   176.514    50.916    69.837     0.664     8.814     1.260    49.671     0.173     0.299     0.037     0.004     0.000     0.028    39.352     0.045     0.000 .00000E+00 0.000E+00 0.000E+00 0.000E+00 0.000E+00 0.000E+00
BIGSUB  11        0   10.14877E-01    90.500     0.000   176.511    53.252    89.005     0.769     7.200     1.219    47.265     0.169     0.238     0.029     0.003     0.000     0.022    38.375     0.048     0.000 .00000E+00 0.000E+00 0.000E+00 0.000E+00 0.000E+00 0.000E+00
BIGSUB   1        0   11.15760E+00   332.200     0.000   134.904    91.361   103.771     4.346    46.164     0.349   216.174     1.428     3.157     0.387     0.002     0.002     0.294   169.440     0.384     0.000 .00000E+00 0.000E+00 0.000E+00 0.000E+00 0.000E+00 0.000E+00
BIGSUB   2        0   11.14128E+00   332.200     0.000   134.753    86.017    85.310     1.660    48.768     0.331   227.823     2.702     2.637     0.324     0.003     0.001     0.252   178.646     0.311     0.000 .00000E+00 0.000E+00 0.000E+00 0.000E+00 0.000E+00 0.000E+00
BIGSUB   3        0   11.21095E+00   332.200     0.000   134.907    92.354   104.425    23.732    47.005     5.631   204.642     1.295     3.207     0.393     0.002     0.002     0.297   151.255     0.333     0.000 .00000E+00 0.000E+00 0.000E+00 0.000E+00 0.000E+00 0.000E+00
BIGSUB   4        0   11.18489E+00   332.200     0.000   134.798    86.173    84.164     0.000    51.043     0.000   227.439     1.923     2.785     0.342     0.003     0.002     0.264   176.341     0.311     0.000 .00000E+00 0.000E+00 0.000E+00 0.000E+00 0.000E+00 0.000E+00
BIGSUB   5        0   11.20438E+00   332.200     0.000   134.887    92.151    95.862    22.139    57.245     2.638   207.462     1.179     3.359     0.411     0.002     0.003     0.314   146.945     0.344     0.000 .00000E+00 0.000E+00 0.000E+00 0.000E+00 0.000E+00 0.000E+00
BIGSUB   6        0   11.17925E+00   332.200     0.000   134.847    90.079    88.958     8.565    60.808     0.161   217.308     1.416     3.281     0.402     0.003     0.002     0.309   156.051     0.327     0.000 .00000E+00 0.000E+00 0.000E+00 0.000E+00 0.000E+00 0.000E+00
BIGSUB   7        0   11.19956E+00   332.200     0.000   134.859    90.144    91.478     7.830    58.014     0.498   217.327     1.460     3.251     0.398     0.003     0.002     0.305   158.533     0.330     0.000 .00000E+00 0.000E+00 0.000E+00 0.000E+00 0.000E+00 0.000E+00
BIGSUB   8        0   11.58278E-01   332.200     0.000   134.787    87.020    87.724     0.000    53.102     0.000   224.117     1.550     2.873     0.352     0.003     0.002     0.271   170.927     0.302     0.000 .00000E+00 0.000E+00 0.000E+00 0.000E+00 0.000E+00 0.000E+00
BIGSUB   9        0   11.38835E+00   332.200     0.000   134.742    85.744    82.367     0.428    50.011     0.126   228.774     2.226     2.755     0.338     0.003     0.001     0.262   178.587     0.308     0.000 .00000E+00 0.000E+00 0.000E+00 0.000E+00 0.000E+00 0.000E+00
BIGSUB  10        0   11.17761E+00   332.200     0.000   134.668    86.295    87.201     5.490    49.035     1.605   224.475     1.857     2.692     0.330     0.003     0.002     0.255   173.633     0.305     0.000 .00000E+00 0.000E+00 0.000E+00 0.000E+00 0.000E+00 0.000E+00
BIGSUB  11        0   11.14877E-01   332.200     0.000   134.663    87.434   104.564    13.166    41.734     2.602   218.675     1.821     2.253     0.277     0.003     0.002     0.212   173.956     0.315     0.000 .00000E+00 0.000E+00 0.000E+00 0.000E+00 0.000E+00 0.000E+00
BIGSUB   1        0   12.15760E+00   450.400     0.000   147.494   100.819   107.612    12.980   118.754     0.886   333.400     2.995     8.383     1.026     0.004     0.004     0.780   213.539     0.356     0.000 .00000E+00 0.000E+00 0.000E+00 0.000E+00 0.000E+00 0.000E+00
BIGSUB   2        0   12.14128E+00   450.400     0.000   147.403    96.221    94.499     3.749   131.348     1.031   341.627     5.997     6.821     0.838     0.004     0.003     0.653   209.171     0.262     0.000 .00000E+00 0.000E+00 0.000E+00 0.000E+00 0.000E+00 0.000E+00
BIGSUB   3        0   12.21095E+00   450.400     0.000   147.495   101.175   108.354    38.185   118.245    13.746   321.203     2.606     8.243     1.009     0.003     0.004     0.762   188.401     0.317     0.002 .00000E+00 0.000E+00 0.000E+00 0.000E+00 0.000E+00 0.000E+00
BIGSUB   4        0   12.18489E+00   450.400     0.000   147.430    96.544    91.936     2.766   137.182     0.000   342.646     4.292     7.514     0.922     0.005     0.004     0.714   205.419     0.270     0.000 .00000E+00 0.000E+00 0.000E+00 0.000E+00 0.000E+00 0.000E+00
BIGSUB   5        0   12.20438E+00   450.400     0.000   147.483    99.615    99.703    33.886   131.153    12.427   325.680     2.135     7.841     0.959     0.003     0.005     0.731   181.403     0.320     0.002 .00000E+00 0.000E+00 0.000E+00 0.000E+00 0.000E+00 0.000E+00
BIGSUB   6        0   12.17925E+00   450.400     0.000   147.460    97.882    92.619    17.019   140.984     1.788   333.324     2.651     7.707     0.944     0.004     0.005     0.726   190.243     0.324     0.000 .00000E+00 0.000E+00 0.000E+00 0.000E+00 0.000E+00 0.000E+00
BIGSUB   7        0   12.19956E+00   450.400     0.000   147.467    98.347    95.164    16.463   137.185     1.683   333.288     2.796     7.810     0.956     0.004     0.005     0.734   194.122     0.326     0.000 .00000E+00 0.000E+00 0.000E+00 0.000E+00 0.000E+00 0.000E+00
BIGSUB   8        0   12.58278E-01   450.400     0.000   147.424    97.203    92.232     5.587   139.921     0.000   342.480     3.386     7.760     0.951     0.005     0.004     0.733   202.483     0.298     0.000 .00000E+00 0.000E+00 0.000E+00 0.000E+00 0.000E+00 0.000E+00
BIGSUB   9        0   12.38835E+00   450.400     0.000   147.397    96.049    91.628     2.104   134.446     0.271   342.573     4.952     7.320     0.898     0.005     0.003     0.698   207.811     0.258     0.000 .00000E+00 0.000E+00 0.000E+00 0.000E+00 0.000E+00 0.000E+00
BIGSUB  10        0   12.17761E+00   450.400     0.000   147.352    96.536    95.488     9.756   132.150     3.545   338.848     4.140     7.276     0.892     0.005     0.004     0.690   202.942     0.261     0.001 .00000E+00 0.000E+00 0.000E+00 0.000E+00 0.000E+00 0.000E+00
BIGSUB  11        0   12.14877E-01   450.400     0.000   147.350    97.414   112.355    20.112   113.971     8.044   332.880     4.031     6.031     0.740     0.004     0.005     0.568   210.448     0.278     0.002 .00000E+00 0.000E+00 0.000E+00 0.000E+00 0.000E+00 0.000E+00
BIGSUB   1        0 2014.15760E+00  3844.300     0.000  1708.799  1075.760   107.612    84.384   972.328    37.745  2729.151    13.126    43.342     5.299     0.032     0.045     4.112  1715.338     2.057     0.002 .00000E+00 0.000E+00 0.000E+00 0.000E+00 0.000E+00 0.000E+00
BIGSUB   2        0 2014.14128E+00  3844.300     0.000  1708.449  1021.879    94.499    27.632  1058.097    13.961  2810.154    26.587    43.451     5.317     0.041     0.036     4.234  1736.882     1.685     0.002 .00000E+00 0.000E+00 0.000E+00 0.000E+00 0.000E+00 0.000E+00
BIGSUB   3        0 2014.21095E+00  3844.300     0.000  1708.804  1088.140   108.354   272.573   972.603   205.780  2705.772    11.515    41.556     5.080     0.029     0.047     3.923  1514.738     1.820     0.017 .00000E+00 0.000E+00 0.000E+00 0.000E+00 0.000E+00 0.000E+00
BIGSUB   4        0 2014.18489E+00  3844.300     0.000  1708.553  1024.259    91.936    19.786  1091.809     0.000  2804.038    18.835    42.341     5.180     0.042     0.039     4.104  1711.449     1.724     0.000 .00000E+00 0.000E+00 0.000E+00 0.000E+00 0.000E+00 0.000E+00
BIGSUB   5        0 2014.20438E+00  3844.300     0.000  1708.758  1080.521    99.703   239.001  1071.681   175.766  2716.989     9.539    38.994     4.766     0.027     0.053     3.712  1458.507     1.796     0.013 .00000E+00 0.000E+00 0.000E+00 0.000E+00 0.000E+00 0.000E+00
BIGSUB   6        0 2014.17925E+00  3844.300     0.000  1708.667  1055.206    92.619   113.702  1133.352    64.471  2750.814    11.751    39.340     4.810     0.032     0.049     3.783  1547.869     1.825     0.004 .00000E+00 0.000E+00 0.000E+00 0.000E+00 0.000E+00 0.000E+00
BIGSUB   7        0 2014.19956E+00  3844.300     0.000  1708.695  1057.816    95.164   109.670  1104.591    60.797  2747.791    12.366    40.119     4.905     0.033     0.047     3.850  1577.459     1.853     0.003 .00000E+00 0.000E+00 0.000E+00 0.000E+00 0.000E+00 0.000E+00
BIGSUB   8        0 2014.58278E-01  3844.300     0.000  1708.528  1032.130    92.232    32.948  1106.294     0.000  2784.591    14.711    40.704     4.978     0.041     0.044     3.927  1676.917     1.775     0.000 .00000E+00 0.000E+00 0.000E+00 0.000E+00 0.000E+00 0.000E+00
BIGSUB   9        0 2014.38835E+00  3844.300     0.000  1708.423  1018.659    91.628    16.691  1078.343     3.589  2813.348    21.956    43.185     5.284     0.042     0.037     4.197  1730.720     1.672     0.001 .00000E+00 0.000E+00 0.000E+00 0.000E+00 0.000E+00 0.000E+00
BIGSUB  10        0 2014.17761E+00  3844.300     0.000  1708.251  1026.825    95.488    71.228  1061.012    47.756  2798.974    18.274    41.016     5.017     0.042     0.042     3.969  1686.977     1.676     0.011 .00000E+00 0.000E+00 0.000E+00 0.000E+00 0.000E+00 0.000E+00
BIGSUB  11        0 2014.14877E-01  3844.300     0.000  1708.241  1043.788   112.355   141.074   941.329   107.490  2775.605    17.888    35.513     4.344     0.036     0.055     3.420  1720.298     1.718     0.024 .00000E+00 0.000E+00 0.000E+00 0.000E+00 0.000E+00 0.000E+00
BIGSUB   1        0    1.15760E+00   682.500     0.000   139.255   104.090   108.582    26.648   205.105     5.592   551.071    13.128    37.528     4.582     0.004     0.013     3.579   340.059     0.453     0.001 .00000E+00 0.000E+00 0.000E+00 0.000E+00 0.000E+00 0.000E+00
[...]
BIGSUB   6        0    8.17925E+00   160.100     0.000   189.165    80.505    77.600     0.169    12.354     0.098    76.792     0.033     0.092     0.011     0.002     0.001     0.009    63.877     0.118     0.000 .00000E+00 0.000E+00 0.000E+00 0.000E+00 0.000E+00 0.000E+00
BIGSUB   7        0    8.19956E+00   160.100     0.000   189.136    80.764    78.978     0.433    11.475     0.151    76.995     0.032     0.088     0.011     0.002     0.001     0.008    64.918     0.121     0.000 .00000E+00 0.000E+00 0.000E+00 0.000E+00 0.000E+00 0.000E+00
BIGSUB   8        0    8.58278E-01   160.100     0.000   189.313    77.421    70.323     0.000    10.298     0.000    83.094     0.034     0.083     0.010     0.003     0.001     0.008    72.616     0.113     0.000 .00000E+00 0.000E+00 0.000E+00 0.000E+00 0.000E+00 0.000E+00
BIGSUB   9        0    8.38835E+00   160.100     0.000   189.423    76.206    67.970     0.132     9.559     0.077    85.136     0.047     0.099     0.012     0.003     0.000     0.009    75.382     0.099     0.000 .00000E+00 0.000E+00 0.000E+00 0.000E+00 0.000E+00 0.000E+00
BIGSUB  10        0    8.17761E+00   160.100     0.000   189.603    77.299    72.673     1.350     9.277     0.840    83.553     0.039     0.087     0.011     0.003     0.000     0.008    73.121     0.102     0.000 .00000E+00 0.000E+00 0.000E+00 0.000E+00 0.000E+00 0.000E+00
BIGSUB  11        0    8.14877E-01   160.100     0.000   189.614    80.171    92.941     1.599     7.373     0.325    79.096     0.038     0.078     0.010     0.002     0.000     0.007    70.844     0.105     0.000 .00000E+00 0.000E+00 0.000E+00 0.000E+00 0.000E+00 0.000E+00
BIGSUB   1        0    9.15760E+00   167.200     0.000   114.683    76.338    95.282     0.477     9.246     0.350    83.937     0.069     0.216     0.026     0.001     0.000     0.020    74.070     0.147     0.000 .00000E+00 0.000E+00 0.000E+00 0.000E+00 0.000E+00 0.000E+00
BIGSUB   2        0    9.14128E+00   167.200     0.000   114.389    71.620    74.354     0.484     9.822     0.270    93.031     0.139     0.306     0.037     0.001     0.000     0.029    82.824     0.127     0.000 .00000E+00 0.000E+00 0.000E+00 0.000E+00 0.000E+00 0.000E+00
BIGSUB   3        0    9.21095E+00   167.200     0.000   114.687    77.470    99.037     7.061     9.581     5.223    82.041     0.066     0.218     0.027     0.001     0.000     0.020    66.414     0.128     0.000 .00000E+00 0.000E+00 0.000E+00 0.000E+00 0.000E+00 0.000E+00
BIGSUB   4        0    9.18489E+00   167.200     0.000   114.476    71.718    72.223     0.000    10.323     0.000    92.520     0.100     0.250     0.031     0.001     0.000     0.024    82.102     0.127     0.000 .00000E+00 0.000E+00 0.000E+00 0.000E+00 0.000E+00 0.000E+00
BIGSUB   5        0    9.20438E+00   167.200     0.000   114.648    77.588    94.971     5.737    13.260     2.314    80.741     0.071     0.254     0.031     0.001     0.001     0.024    64.465     0.125     0.000 .00000E+00 0.000E+00 0.000E+00 0.000E+00 0.000E+00 0.000E+00
BIGSUB   6        0    9.17925E+00   167.200     0.000   114.572    75.581    86.550     0.226    13.437     0.164    83.313     0.080     0.251     0.031     0.001     0.001     0.024    69.370     0.112     0.000 .00000E+00 0.000E+00 0.000E+00 0.000E+00 0.000E+00 0.000E+00
BIGSUB   7        0    9.19956E+00   167.200     0.000   114.595    75.446    87.214     0.674    12.414     0.470    84.016     0.079     0.243     0.030     0.001     0.001     0.023    70.795     0.118     0.000 .00000E+00 0.000E+00 0.000E+00 0.000E+00 0.000E+00 0.000E+00
BIGSUB   8        0    9.58278E-01   167.200     0.000   114.455    72.430    75.024     0.000    10.841     0.000    90.655     0.081     0.226     0.028     0.001     0.001     0.021    79.682     0.126     0.000 .00000E+00 0.000E+00 0.000E+00 0.000E+00 0.000E+00 0.000E+00
BIGSUB   9        0    9.38835E+00   167.200     0.000   114.367    71.329    70.868     0.176    10.101     0.128    93.507     0.114     0.270     0.033     0.001     0.000     0.026    83.189     0.127     0.000 .00000E+00 0.000E+00 0.000E+00 0.000E+00 0.000E+00 0.000E+00
BIGSUB  10        0    9.17761E+00   167.200     0.000   114.224    71.886    76.088     1.868     9.854     1.365    92.105     0.096     0.239     0.029     0.001     0.000     0.023    80.638     0.125     0.000 .00000E+00 0.000E+00 0.000E+00 0.000E+00 0.000E+00 0.000E+00
BIGSUB  11        0    9.14877E-01   167.200     0.000   114.215    73.508    96.525     3.724     8.232     2.022    89.262     0.093     0.220     0.027     0.001     0.000     0.021    78.575     0.127     0.000 .00000E+00 0.000E+00 0.000E+00 0.000E+00 0.000E+00 0.000E+00
BIGSUB   1        0   10.15760E+00   159.000     0.000   160.005    87.054    97.084     0.387     2.985     0.348    67.097     0.032     0.075     0.009     0.001     0.000     0.007    63.550     0.116     0.000 .00000E+00 0.000E+00 0.000E+00 0.000E+00 0.000E+00 0.000E+00
BIGSUB   2        0   10.14128E+00   159.000     0.000   159.751    78.737    75.817     0.151     2.291     0.147    74.299     0.049     0.083     0.010     0.001     0.000     0.008    71.768     0.072     0.000 .00000E+00 0.000E+00 0.000E+00 0.000E+00 0.000E+00 0.000E+00
BIGSUB   3        0   10.21095E+00   159.000     0.000   160.009    89.015   101.554     4.544     3.120     4.882    65.140     0.035     0.081     0.010     0.001     0.000     0.008    56.438     0.104     0.000 .00000E+00 0.000E+00 0.000E+00 0.000E+00 0.000E+00 0.000E+00
BIGSUB   4        0   10.18489E+00   159.000     0.000   159.826    79.020    73.981     0.000     2.653     0.000    73.799     0.039     0.078     0.010     0.001     0.000     0.007    71.071     0.070     0.000 .00000E+00 0.000E+00 0.000E+00 0.000E+00 0.000E+00 0.000E+00
BIGSUB   5        0   10.20438E+00   159.000     0.000   159.976    89.107    99.519     2.034     5.536     2.216    62.619     0.049     0.133     0.016     0.002     0.000     0.013    54.282     0.102     0.000 .00000E+00 0.000E+00 0.000E+00 0.000E+00 0.000E+00 0.000E+00
BIGSUB   6        0   10.17925E+00   159.000     0.000   159.909    85.967    88.965     0.185     5.774     0.164    66.682     0.058     0.144     0.018     0.002     0.000     0.014    60.478     0.096     0.000 .00000E+00 0.000E+00 0.000E+00 0.000E+00 0.000E+00 0.000E+00
BIGSUB   7        0   10.19956E+00   159.000     0.000   159.929    85.868    89.386     0.384     4.956     0.270    66.985     0.052     0.126     0.015     0.002     0.000     0.012    61.493     0.099     0.000 .00000E+00 0.000E+00 0.000E+00 0.000E+00 0.000E+00 0.000E+00
BIGSUB   8        0   10.58278E-01   159.000     0.000   159.808    80.577    76.758     0.000     3.193     0.000    72.210     0.037     0.083     0.010     0.001     0.000     0.008    68.914     0.078     0.000 .00000E+00 0.000E+00 0.000E+00 0.000E+00 0.000E+00 0.000E+00
BIGSUB   9        0   10.38835E+00   159.000     0.000   159.732    78.207    72.175     0.144     2.406     0.128    74.955     0.040     0.076     0.009     0.001     0.000     0.007    72.350     0.071     0.000 .00000E+00 0.000E+00 0.000E+00 0.000E+00 0.000E+00 0.000E+00
BIGSUB  10        0   10.17761E+00   159.000     0.000   159.608    79.337    77.738     1.341     2.395     1.340    73.679     0.035     0.071     0.009     0.001     0.000     0.007    69.735     0.071     0.000 .00000E+00 0.000E+00 0.000E+00 0.000E+00 0.000E+00 0.000E+00
BIGSUB  11        0   10.14877E-01   159.000     0.000   159.600    82.036    98.923     1.616     1.725     1.206    69.981     0.032     0.058     0.007     0.001     0.000     0.005    66.688     0.078     0.000 .00000E+00 0.000E+00 0.000E+00 0.000E+00 0.000E+00 0.000E+00
BIGSUB   1        0   11.15760E+00   334.500     0.000   145.173    88.563    97.624     3.665    95.927     0.479   245.760     1.994     6.037     0.738     0.005     0.004     0.565   149.188     0.377     0.000 .00000E+00 0.000E+00 0.000E+00 0.000E+00 0.000E+00 0.000E+00
BIGSUB   2        0   11.14128E+00   334.500     0.000   145.040    81.924    75.720     1.724    95.658     0.398   256.273     3.520     6.201     0.759     0.005     0.004     0.590   160.144     0.321     0.000 .00000E+00 0.000E+00 0.000E+00 0.000E+00 0.000E+00 0.000E+00
BIGSUB   3        0   11.21095E+00   334.500     0.000   145.175    89.107    98.006    22.748    97.351     7.360   237.692     1.724     5.722     0.700     0.004     0.004     0.532   132.368     0.305     0.001 .00000E+00 0.000E+00 0.000E+00 0.000E+00 0.000E+00 0.000E+00
BIGSUB   4        0   11.18489E+00   334.500     0.000   145.079    82.324    74.922     0.000    99.488     0.000   256.046     2.537     5.569     0.682     0.005     0.004     0.529   156.504     0.315     0.000 .00000E+00 0.000E+00 0.000E+00 0.000E+00 0.000E+00 0.000E+00
BIGSUB   5        0   11.20438E+00   334.500     0.000   145.158    87.957    89.688    21.908   111.302     3.409   242.044     1.429     5.159     0.631     0.003     0.005     0.484   126.827     0.316     0.000 .00000E+00 0.000E+00 0.000E+00 0.000E+00 0.000E+00 0.000E+00
BIGSUB   6        0   11.17925E+00   334.500     0.000   145.123    85.846    83.228     8.851   116.733     0.225   250.370     1.744     5.274     0.645     0.004     0.005     0.499   133.196     0.304     0.000 .00000E+00 0.000E+00 0.000E+00 0.000E+00 0.000E+00 0.000E+00
BIGSUB   7        0   11.19956E+00   334.500     0.000   145.134    86.199    85.676     7.762   112.503     0.623   249.417     1.838     5.425     0.664     0.004     0.005     0.512   136.075     0.304     0.000 .00000E+00 0.000E+00 0.000E+00 0.000E+00 0.000E+00 0.000E+00
BIGSUB   8        0   11.58278E-01   334.500     0.000   145.070    83.409    79.194     0.000   103.877     0.000   253.560     2.054     5.257     0.643     0.005     0.004     0.498   149.609     0.298     0.000 .00000E+00 0.000E+00 0.000E+00 0.000E+00 0.000E+00 0.000E+00
BIGSUB   9        0   11.38835E+00   334.500     0.000   145.030    81.618    72.682     0.358    97.244     0.175   257.096     2.906     5.809     0.711     0.005     0.004     0.553   159.623     0.317     0.000 .00000E+00 0.000E+00 0.000E+00 0.000E+00 0.000E+00 0.000E+00
BIGSUB  10        0   11.17761E+00   334.500     0.000   144.965    82.318    77.828     5.334    96.484     2.103   253.845     2.441     5.376     0.658     0.005     0.004     0.510   155.079     0.311     0.001 .00000E+00 0.000E+00 0.000E+00 0.000E+00 0.000E+00 0.000E+00
BIGSUB  11        0   11.14877E-01   334.500     0.000   144.961    83.688    95.710    13.414    87.104     3.320   249.015     2.382     4.922     0.602     0.005     0.005     0.463   158.276     0.326     0.001 .00000E+00 0.000E+00 0.000E+00 0.000E+00 0.000E+00 0.000E+00
BIGSUB   1        0   12.15760E+00   398.800     0.000   134.366    92.626   105.389    13.464    72.560     0.682   283.618     3.382     6.825     0.834     0.003     0.003     0.642   210.213     0.415     0.000 .00000E+00 0.000E+00 0.000E+00 0.000E+00 0.000E+00 0.000E+00
BIGSUB   2        0   12.14128E+00   398.800     0.000   134.167    87.630    93.160     3.067    78.106     0.890   288.426     7.371     8.035     0.983     0.003     0.002     0.767   209.360     0.308     0.000 .00000E+00 0.000E+00 0.000E+00 0.000E+00 0.000E+00 0.000E+00
BIGSUB   3        0   12.21095E+00   398.800     0.000   134.369    93.401   105.813    37.472    72.251    12.307   270.926     3.043     6.525     0.798     0.003     0.003     0.611   185.696     0.371     0.002 .00000E+00 0.000E+00 0.000E+00 0.000E+00 0.000E+00 0.000E+00
BIGSUB   4        0   12.18489E+00   398.800     0.000   134.226    87.939    90.332     2.372    83.543     0.000   289.942     5.373     7.689     0.941     0.003     0.003     0.732   206.357     0.320     0.000 .00000E+00 0.000E+00 0.000E+00 0.000E+00 0.000E+00 0.000E+00
BIGSUB   5        0   12.20438E+00   398.800     0.000   134.343    92.535    97.133    34.083    83.165     8.252   271.088     2.446     6.271     0.766     0.002     0.003     0.590   179.102     0.376     0.001 .00000E+00 0.000E+00 0.000E+00 0.000E+00 0.000E+00 0.000E+00
BIGSUB   6        0   12.17925E+00   398.800     0.000   134.291    90.641    90.358    17.930    91.047     0.318   280.708     3.213     6.814     0.833     0.003     0.003     0.645   189.107     0.384     0.000 .00000E+00 0.000E+00 0.000E+00 0.000E+00 0.000E+00 0.000E+00
BIGSUB   7        0   12.19956E+00   398.800     0.000   134.307    90.926    92.914    17.201    87.831     1.207   282.026     3.393     6.897     0.843     0.003     0.003     0.652   192.758     0.386     0.000 .00000E+00 0.000E+00 0.000E+00 0.000E+00 0.000E+00 0.000E+00
BIGSUB   8        0   12.58278E-01   398.800     0.000   134.212    88.864    90.337     5.448    87.782     0.000   290.264     4.284     7.473     0.914     0.004     0.003     0.708   202.423     0.348     0.000 .00000E+00 0.000E+00 0.000E+00 0.000E+00 0.000E+00 0.000E+00
BIGSUB   9        0   12.38835E+00   398.800     0.000   134.153    87.418    90.326     1.429    80.585     0.248   289.417     6.116     7.782     0.952     0.003     0.002     0.742   208.541     0.305     0.000 .00000E+00 0.000E+00 0.000E+00 0.000E+00 0.000E+00 0.000E+00
BIGSUB  10        0   12.17761E+00   398.800     0.000   134.055    87.996    93.926     8.897    79.390     3.231   285.920     5.151     7.346     0.899     0.003     0.003     0.698   203.113     0.307     0.001 .00000E+00 0.000E+00 0.000E+00 0.000E+00 0.000E+00 0.000E+00
BIGSUB  11        0   12.14877E-01   398.800     0.000   134.049    89.136   110.629    18.930    65.212     7.069   279.978     4.932     6.301     0.771     0.003     0.003     0.596   207.345     0.321     0.002 .00000E+00 0.000E+00 0.000E+00 0.000E+00 0.000E+00 0.000E+00
BIGSUB   1        0 2016.15760E+00  3003.700     0.000  1726.262   884.779   105.389    66.505   667.287    42.444  2104.723     5.887    14.338     1.753     0.029     0.025     1.346  1391.005     1.549     0.002 .00000E+00 0.000E+00 0.000E+00 0.000E+00 0.000E+00 0.000E+00
BIGSUB   2        0 2016.14128E+00  3003.700     0.000  1726.044   830.706    93.160    26.112   717.059    13.081  2168.271    12.051    16.395     2.006     0.037     0.021     1.564  1436.513     1.264     0.001 .00000E+00 0.000E+00 0.000E+00 0.000E+00 0.000E+00 0.000E+00
BIGSUB   3        0 2016.21095E+00  3003.700     0.000  1726.265   896.130   105.813   215.584   669.310   197.582  2107.854     5.255    13.656     1.670     0.026     0.026     1.276  1228.556     1.350     0.013 .00000E+00 0.000E+00 0.000E+00 0.000E+00 0.000E+00 0.000E+00
BIGSUB   4        0 2016.18489E+00  3003.700     0.000  1726.109   832.018    90.332    19.975   742.440     0.000  2159.594     8.739    15.065     1.843     0.038     0.022     1.433  1415.872     1.275     0.000 .00000E+00 0.000E+00 0.000E+00 0.000E+00 0.000E+00 0.000E+00
BIGSUB   5        0 2016.20438E+00  3003.700     0.000  1726.237   889.576    97.133   187.186   755.716   162.889  2106.584     4.337    12.899     1.576     0.025     0.032     1.214  1177.234     1.348     0.010 .00000E+00 0.000E+00 0.000E+00 0.000E+00 0.000E+00 0.000E+00
BIGSUB   6        0 2016.17925E+00  3003.700     0.000  1726.180   865.588    90.358    88.965   801.018    63.847  2124.563     5.536    13.679     1.673     0.030     0.030     1.296  1254.499     1.342     0.003 .00000E+00 0.000E+00 0.000E+00 0.000E+00 0.000E+00 0.000E+00
BIGSUB   7        0 2016.19956E+00  3003.700     0.000  1726.197   867.652    92.914    86.431   775.657    63.269  2124.277     5.817    13.899     1.700     0.030     0.028     1.315  1280.278     1.361     0.002 .00000E+00 0.000E+00 0.000E+00 0.000E+00 0.000E+00 0.000E+00
BIGSUB   8        0 2016.58278E-01  3003.700     0.000  1726.093   839.858    90.337    29.479   760.541     0.000  2142.761     7.000    14.355     1.756     0.036     0.025     1.361  1380.387     1.303     0.000 .00000E+00 0.000E+00 0.000E+00 0.000E+00 0.000E+00 0.000E+00
BIGSUB   9        0 2016.38835E+00  3003.700     0.000  1726.028   827.290    90.326    18.496   731.832     3.296  2169.028     9.980    15.539     1.902     0.039     0.021     1.481  1432.717     1.254     0.001 .00000E+00 0.000E+00 0.000E+00 0.000E+00 0.000E+00 0.000E+00
BIGSUB  10        0 2016.17761E+00  3003.700     0.000  1725.920   834.886    93.926    61.255   719.443    45.340  2163.304     8.390    14.460     1.769     0.037     0.024     1.374  1394.913     1.249     0.008 .00000E+00 0.000E+00 0.000E+00 0.000E+00 0.000E+00 0.000E+00
BIGSUB  11        0 2016.14877E-01  3003.700     0.000  1725.913   853.647   110.629   113.073   632.338   100.491  2150.874     8.086    12.787     1.564     0.033     0.032     1.208  1411.428     1.294     0.015 .00000E+00 0.000E+00 0.000E+00 0.000E+00 0.000E+00 0.000E+00
BIGSUB   1        0  4.0.15760E+00  3445.524     0.000  1685.208   976.255   105.389    75.021   814.126    39.175  2435.868    19.194    44.346     5.422     0.028     0.034     4.203  1578.731     1.934     0.003 .00000E+00 0.000E+00 0.000E+00 0.000E+00 0.000E+00 0.000E+00
BIGSUB   2        0  4.0.14128E+00  3445.525     0.000  1685.440   920.923    93.160    27.781   877.436    13.408  2509.836    38.596    42.197     5.163     0.036     0.027     4.112  1617.565     1.621     0.002 .00000E+00 0.000E+00 0.000E+00 0.000E+00 0.000E+00 0.000E+00
BIGSUB   3        0  4.0.21095E+00  3445.525     0.000  1685.205   987.606   105.813   246.464   817.673   199.892  2422.744    16.727    43.482     5.315     0.026     0.036     4.093  1392.684     1.715     0.019 .00000E+00 0.000E+00 0.000E+00 0.000E+00 0.000E+00 0.000E+00
BIGSUB   4        0  4.0.18489E+00  3445.525     0.000  1685.372   922.716    90.332    19.994   908.549     0.000  2502.067    27.369    42.160     5.158     0.037     0.030     4.085  1592.480     1.634     0.000 .00000E+00 0.000E+00 0.000E+00 0.000E+00 0.000E+00 0.000E+00
BIGSUB   5        0  4.0.20438E+00  3445.525     0.000  1685.235   980.315    97.133   215.352   911.278   168.513  2428.267    13.624    41.087     5.021     0.024     0.042     3.898  1337.547     1.684     0.015 .00000E+00 0.000E+00 0.000E+00 0.000E+00 0.000E+00 0.000E+00
BIGSUB   6        0  4.0.17925E+00  3445.525     0.000  1685.296   955.805    90.358   101.968   963.241    63.007  2454.663    16.903    40.650     4.970     0.029     0.039     3.899  1423.219     1.709     0.005 .00000E+00 0.000E+00 0.000E+00 0.000E+00 0.000E+00 0.000E+00
BIGSUB   7        0  4.0.19956E+00  3445.524     0.000  1685.278   958.237    92.914    98.553   936.036    60.216  2452.667    17.864    41.401     5.062     0.029     0.037     3.963  1451.393     1.738     0.004 .00000E+00 0.000E+00 0.000E+00 0.000E+00 0.000E+00 0.000E+00
BIGSUB   8        0  4.0.58278E-01  3445.525     0.000  1685.388   930.697    90.337    31.305   926.069     0.000  2483.460    21.392    41.370     5.060     0.036     0.034     3.987  1555.777     1.675     0.000 .00000E+00 0.000E+00 0.000E+00 0.000E+00 0.000E+00 0.000E+00
BIGSUB   9        0  4.0.38835E+00  3445.525     0.000  1685.457   917.563    90.326    18.482   894.963     3.468  2512.070    31.867    42.481     5.197     0.037     0.028     4.130  1612.680     1.605     0.001 .00000E+00 0.000E+00 0.000E+00 0.000E+00 0.000E+00 0.000E+00
BIGSUB  10        0  4.0.17761E+00  3445.525     0.000  1685.568   925.807    93.926    67.303   881.337    46.153  2500.213    26.546    41.040     5.020     0.037     0.032     3.968  1569.296     1.594     0.011 .00000E+00 0.000E+00 0.000E+00 0.000E+00 0.000E+00 0.000E+00
BIGSUB  11        0  4.0.14877E-01  3445.525     0.000  1685.575   944.207   110.629   128.720   778.094   103.169  2480.638    26.021    36.136     4.420     0.032     0.042     3.466  1592.839     1.643     0.021 .00000E+00 0.000E+00 0.000E+00 0.000E+00 0.000E+00 0.000E+00
