1
    SWAT Dec 23 2016    VER 2016/Rev 664                                                                 0/ 0/   0      0: 0: 0

    General Input/Output section (file.cio):                                        
    2/7/2020 21:47:35 QSWAT Workflow v1.5.2                                         
                                                                                    


LULC  HRU       GIS  SUB  MGT  MON   AREAkm2  PRECIPmm SNOFALLmm SNOMELTmm     IRRmm     PETmm      ETmm SW_INITmm  SW_ENDmm    PERCmm GW_RCHGmm DA_RCHGmm   REVAPmm  SA_IRRmm  DA_IRRmm   SA_STmm   DA_STmmSURQ_GENmmSURQ_CNTmm   TLOSSmm LATQGENmm    GW_Qmm    WYLDmm   DAILYCN TMP_AVdgC TMP_MXdgC TMP_MNdgCSOL_TMPdgCSOLARMJ/m2  SYLDt/ha  USLEt/haN_APPkg/haP_APPkg/haNAUTOkg/haPAUTOkg/ha NGRZkg/ha PGRZkg/haNCFRTkg/haPCFRTkg/haNRAINkg/ha NFIXkg/ha F-MNkg/ha A-MNkg/ha A-SNkg/ha F-MPkg/haAO-LPkg/ha L-APkg/ha A-SPkg/ha DNITkg/ha  NUPkg/ha  PUPkg/ha ORGNkg/ha ORGPkg/ha SEDPkg/haNSURQkg/haNLATQkg/ha NO3Lkg/haNO3GWkg/ha SOLPkg/ha P_GWkg/ha    W_STRS  TMP_STRS    N_STRS    P_STRS  BIOMt/ha       LAI   YLDt/ha  BACTPct   BACTLPct WTAB CLIm WTAB SOLm     SNOmm CMUPkg/haCMTOTkg/ha   QTILEmm TNO3kg/ha LNO3kg/ha  GW_Q_Dmm LATQCNTmm TVAPkg/ha
FRSE    1 000010001    1    0    1.10260E-03   576.600     0.000     0.000     0.000   117.409    96.331   145.006   148.718   395.344   252.800    12.640     2.348     0.000     0.000  1116.469  2029.705    68.479    68.299     0.000    10.249   206.109   293.164    73.750    26.316    28.503    24.129    24.389    15.425     0.174     0.598     0.000     0.000     0.000     0.000     0.000     0.000     0.000     0.000     0.000     0.000     0.018     1.331    -1.040     0.004     0.227    -0.475    -0.318     0.000     0.000     0.000     4.065     0.496     0.319     0.002     0.015     2.476     0.080     0.022     0.000     0.000     0.000     0.000     0.000     0.000     0.000     0.000 .00000E+00 .00000E+00 0.875E-05 0.439E+04 0.000E+00 0.000E+00 0.000E+00 0.000E+00 0.000E+00 0.154E-01     8.507    10.249     0.000
FRSE    2 000010002    1    0    1.45658E-01   576.600     0.000     0.000     0.000   117.409    95.178   144.327   148.691    27.110    15.603     0.780     2.348     0.000     0.000  1004.356  2001.658    68.172    68.172     0.000   374.848     9.030   452.504    73.648    26.316    28.503    24.129    24.379    15.425     6.857    10.932     0.000     0.000     0.000     0.000     0.000     0.000     0.000     0.000     0.000     0.000     0.012     1.258    -0.973     0.003     0.215     0.052     0.383     0.000     0.000     0.000    25.441     3.106     2.370     0.003     0.496     0.263     0.000     0.006     0.000     0.000     0.000     0.000     0.000     0.000     0.000     0.000 .00000E+00 .00000E+00 0.832E-05 0.439E+04 0.000E+00 0.000E+00 0.000E+00 0.000E+00 0.000E+00 0.496E+00     0.454   374.848     0.000
FRSE    3 000010003    1    0    1.20521E-03   576.600     0.000     0.000     0.000   117.409    90.114    92.965    96.137   318.967   206.558    10.328     2.348     0.000     0.000  1086.719  2024.322   165.587   149.795     0.000     0.016   168.154   324.941    84.922    26.316    28.503    24.129    25.523    15.425     0.023     0.104     0.000     0.000     0.000     0.000     0.000     0.000     0.000     0.000     0.000     0.000     0.009     1.152    -0.914     0.002     0.197    -0.292    -0.193     0.000     0.000     0.000     0.514     0.063     0.044     0.003     0.000     1.803     0.052     0.037     0.000     0.000     0.000     0.000     0.000     0.000     0.000     0.000 .00000E+00 .00000E+00 0.341E-04 0.404E+04 0.000E+00 0.000E+00 0.000E+00 0.000E+00 0.000E+00 0.187E-04     6.976     0.016     0.000
FRSE    4 000010004    1    0    1.82082E-03   576.600     0.000     0.000     0.000   117.409    90.112    92.949    96.106   314.781   203.770    10.189     2.348     0.000     0.000  1085.145  2023.984   165.540   164.524     0.000     3.241   165.848   340.491    84.920    26.316    28.503    24.129    25.523    15.425     0.323     0.577     0.000     0.000     0.000     0.000     0.000     0.000     0.000     0.000     0.000     0.000     0.008     1.140    -0.905     0.002     0.195    -0.274    -0.175     0.000     0.000     0.000     4.783     0.584     0.423     0.003     0.003     1.775     0.051     0.033     0.000     0.000     0.000     0.000     0.000     0.000     0.000     0.000 .00000E+00 .00000E+00 0.325E-04 0.404E+04 0.000E+00 0.000E+00 0.000E+00 0.000E+00 0.000E+00 0.302E-02     6.879     3.241     0.000
FRSE    5 000010005    1    0    1.11081E+00   576.600     0.000     0.000     0.000   117.409    88.136    92.040    96.091    18.876    10.436     0.522     2.348     0.000     0.000  1003.293  2001.051   163.865   163.865     0.000   287.495     4.712   456.355    84.754    26.316    28.503    24.129    25.509    15.425     8.362    10.764     0.000     0.000     0.000     0.000     0.000     0.000     0.000     0.000     0.000     0.000     0.011     1.095    -0.833     0.003     0.187     0.153     0.277     0.000     0.000     0.000    22.950     2.804     2.240     0.004     0.441     0.579     0.000     0.010     0.000     0.000     0.000     0.000     0.000     0.000     0.000     0.000 .00000E+00 .00000E+00 0.259E-04 0.404E+04 0.000E+00 0.000E+00 0.000E+00 0.000E+00 0.000E+00 0.441E+00     0.282   287.495     0.000
FRSE    6 000020001    2    0    1.58484E-02   576.600     0.000     0.000     0.000   117.355    90.434   161.053   164.687    95.409    58.695     2.935     2.347     0.000     0.000  1021.134  2006.648    68.465    68.465     0.000   304.404    46.513   421.255    73.724    26.316    28.503    24.129    24.877    15.425     1.004     2.559     0.000     0.000     0.000     0.000     0.000     0.000     0.000     0.000     0.000     0.000     0.030     1.680    -1.307     0.004     0.287     0.144     0.181     0.000     0.000     0.000     8.913     1.088     0.805     0.002     0.389     2.010     0.014     0.011     0.000     0.000     0.000     0.000     0.000     0.000     0.000     0.000 .00000E+00 .00000E+00 0.878E-05 0.444E+04 0.000E+00 0.000E+00 0.000E+00 0.000E+00 0.000E+00 0.389E+00     1.874   304.404     0.000
FRSE    7 000020002    2    0    1.13544E+00   576.600     0.000     0.000     0.000   117.355    87.355    91.227    96.087     6.652     3.130     0.157     2.347     0.000     0.000   885.724  2000.253   161.732   161.732     0.000   300.935     0.000   462.728    84.603    26.316    28.503    24.129    25.505    15.425    18.908    12.793     0.000     0.000     0.000     0.000     0.000     0.000     0.000     0.000     0.000     0.000     0.008     1.092    -0.815     0.002     0.187     0.183     0.297     0.000     0.000     0.000    29.583     3.613     2.913     0.005     0.419     0.128     0.000     0.008     0.000     0.000     0.000     0.000     0.000     0.000     0.000     0.000 .00000E+00 .00000E+00 0.239E-04 0.404E+04 0.000E+00 0.000E+00 0.000E+00 0.000E+00 0.000E+00 0.419E+00     0.062   300.935     0.000
FRSE    8 000030001    3    0    1.20521E-03   576.600     0.000     0.000     0.000   117.410    96.330   144.992   148.690   393.012   251.276    12.564     2.348     0.000     0.000  1115.527  2029.522    68.461    68.312     0.000    12.430   204.854   294.051    73.748    26.316    28.503    24.129    24.389    15.425     0.250     0.856     0.000     0.000     0.000     0.000     0.000     0.000     0.000     0.000     0.000     0.000     0.017     1.325    -1.036     0.004     0.226    -0.473    -0.308     0.000     0.000     0.000     5.452     0.666     0.433     0.002     0.019     2.455     0.079     0.020     0.000     0.000     0.000     0.000     0.000     0.000     0.000     0.000 .00000E+00 .00000E+00 0.871E-05 0.439E+04 0.000E+00 0.000E+00 0.000E+00 0.000E+00 0.000E+00 0.187E-01     8.455    12.430     0.000
FRSE    9 000030002    3    0    1.62690E-01   576.600     0.000     0.000     0.000   117.410    96.027   144.872   148.690   157.113    99.032     4.952     2.348     0.000     0.000  1036.441  2011.488    68.375    68.375     0.000   246.458    79.812   397.919    73.730    26.316    28.503    24.129    24.385    15.425     3.177     6.871     0.000     0.000     0.000     0.000     0.000     0.000     0.000     0.000     0.000     0.000     0.014     1.266    -0.990     0.003     0.216    -0.220     0.145     0.000     0.000     0.000    19.275     2.354     1.763     0.002     0.372     1.239     0.015     0.007     0.000     0.000     0.000     0.000     0.000     0.000     0.000     0.000 .00000E+00 .00000E+00 0.851E-05 0.439E+04 0.000E+00 0.000E+00 0.000E+00 0.000E+00 0.000E+00 0.372E+00     3.274   246.458     0.000
FRSE   10 000030003    3    0    1.14806E+00   576.600     0.000     0.000     0.000   117.410    88.200    92.084    96.091    20.296    11.314     0.566     2.348     0.000     0.000  1003.464  2001.153   163.942   163.943     0.000   286.106     5.085   455.444    84.762    26.316    28.503    24.129    25.509    15.425     8.307     8.420     0.000     0.000     0.000     0.000     0.000     0.000     0.000     0.000     0.000     0.000     0.011     1.095    -0.834     0.003     0.187     0.151     0.275     0.000     0.000     0.000    22.830     2.789     2.229     0.004     0.441     0.625     0.000     0.010     0.000     0.000     0.000     0.000     0.000     0.000     0.000     0.000 .00000E+00 .00000E+00 0.262E-04 0.404E+04 0.000E+00 0.000E+00 0.000E+00 0.000E+00 0.000E+00 0.441E+00     0.310   286.106     0.000
FRSE   11 000040001    4    0    1.18489E+00   576.600     0.000     0.000     0.000   117.371    87.509    91.404    96.088     9.373     4.639     0.232     2.347     0.000     0.000   928.968  2000.415   162.258   162.258     0.000   297.877     0.000   460.237    84.636    26.316    28.503    24.129    25.506    15.425    12.635    10.659     0.000     0.000     0.000     0.000     0.000     0.000     0.000     0.000     0.000     0.000     0.010     1.094    -0.820     0.002     0.187     0.176     0.294     0.000     0.000     0.000    26.324     3.216     2.581     0.005     0.420     0.219     0.000     0.009     0.000     0.000     0.000     0.000     0.000     0.000     0.000     0.000 .00000E+00 .00000E+00 0.241E-04 0.404E+04 0.000E+00 0.000E+00 0.000E+00 0.000E+00 0.000E+00 0.420E+00     0.102   297.877     0.000
FRSE   12 000050001    5    0    1.10260E-03   576.600     0.000     0.000     0.000   117.403    96.330   145.015   148.735   395.798   253.103    12.655     2.348     0.000     0.000  1116.651  2029.739    68.490    68.303     0.000     9.811   206.358   292.988    73.751    26.316    28.503    24.129    24.389    15.425     0.165     1.154     0.000     0.000     0.000     0.000     0.000     0.000     0.000     0.000     0.000     0.000     0.018     1.331    -1.040     0.004     0.227    -0.476    -0.319     0.000     0.000     0.000     3.892     0.475     0.305     0.002     0.015     2.479     0.081     0.022     0.000     0.000     0.000     0.000     0.000     0.000     0.000     0.000 .00000E+00 .00000E+00 0.879E-05 0.439E+04 0.000E+00 0.000E+00 0.000E+00 0.000E+00 0.000E+00 0.148E-01     8.517     9.811     0.000
FRSE   13 000050002    5    0    1.26574E-01   576.600     0.000     0.000     0.000   117.403    96.023   144.872   148.690   156.370    98.553     4.928     2.348     0.000     0.000  1036.246  2011.440    68.376    68.376     0.000   247.195    79.421   398.248    73.730    26.316    28.503    24.129    24.385    15.425     2.890     5.938     0.000     0.000     0.000     0.000     0.000     0.000     0.000     0.000     0.000     0.000     0.014     1.267    -0.991     0.003     0.216    -0.220     0.135     0.000     0.000     0.000    18.710     2.285     1.707     0.002     0.374     1.237     0.015     0.008     0.000     0.000     0.000     0.000     0.000     0.000     0.000     0.000 .00000E+00 .00000E+00 0.855E-05 0.439E+04 0.000E+00 0.000E+00 0.000E+00 0.000E+00 0.000E+00 0.374E+00     3.257   247.195     0.000
FRSE   14 000050003    5    0    1.20520E-03   576.600     0.000     0.000     0.000   117.403    90.109    92.941    96.089   312.568   202.297    10.115     2.348     0.000     0.000  1084.281  2023.808   165.517   164.964     0.000     5.127   164.628   341.546    84.918    26.316    28.503    24.129    25.523    15.425     0.308     0.396     0.000     0.000     0.000     0.000     0.000     0.000     0.000     0.000     0.000     0.000     0.008     1.141    -0.906     0.002     0.195    -0.273    -0.175     0.000     0.000     0.000     4.416     0.539     0.390     0.003     0.005     1.772     0.051     0.034     0.000     0.000     0.000     0.000     0.000     0.000     0.000     0.000 .00000E+00 .00000E+00 0.326E-04 0.404E+04 0.000E+00 0.000E+00 0.000E+00 0.000E+00 0.000E+00 0.473E-02     6.827     5.127     0.000
FRSE   15 000050004    5    0    1.17750E+00   576.600     0.000     0.000     0.000   117.403    88.874    92.453    96.090    40.951    24.312     1.216     2.348     0.000     0.000  1005.231  2002.624   164.392   164.392     0.000   266.083    18.461   449.663    84.829    26.316    28.503    24.129    25.513    15.425     5.397     3.607     0.000     0.000     0.000     0.000     0.000     0.000     0.000     0.000     0.000     0.000     0.011     1.096    -0.847     0.003     0.187     0.113     0.244     0.000     0.000     0.000    19.662     2.402     1.913     0.003     0.402     1.056     0.003     0.011     0.000     0.000     0.000     0.000     0.000     0.000     0.000     0.000 .00000E+00 .00000E+00 0.305E-04 0.404E+04 0.000E+00 0.000E+00 0.000E+00 0.000E+00 0.000E+00 0.402E+00     0.727   266.083     0.000
FRSE   16 000060001    6    0    1.10260E-03   576.600     0.000     0.000     0.000   117.389    90.108    92.966    96.136   318.974   206.564    10.328     2.348     0.000     0.000  1086.732  2024.319   165.589   149.797     0.000     0.016   168.154   324.943    84.923    26.316    28.503    24.129    25.523    15.425     0.000     0.104     0.000     0.000     0.000     0.000     0.000     0.000     0.000     0.000     0.000     0.000     0.009     1.152    -0.914     0.002     0.197    -0.293    -0.194     0.000     0.000     0.000     0.000     0.000     0.000     0.003     0.000     1.804     0.052     0.038     0.000     0.000     0.000     0.000     0.000     0.000     0.000     0.000 .00000E+00 .00000E+00 0.343E-04 0.404E+04 0.000E+00 0.000E+00 0.000E+00 0.000E+00 0.000E+00 0.187E-04     6.975     0.016     0.000
FRSE   17 000060002    6    0    1.51300E-03   576.600     0.000     0.000     0.000   117.389    90.105    92.939    96.086   311.461   201.561    10.078     2.348     0.000     0.000  1083.852  2023.719   165.514   165.039     0.000     6.006   164.018   341.864    84.918    26.316    28.503    24.129    25.523    15.425     0.423     0.700     0.000     0.000     0.000     0.000     0.000     0.000     0.000     0.000     0.000     0.000     0.008     1.137    -0.903     0.002     0.194    -0.267    -0.167     0.000     0.000     0.000     5.729     0.699     0.509     0.003     0.006     1.764     0.050     0.032     0.000     0.000     0.000     0.000     0.000     0.000     0.000     0.000 .00000E+00 .00000E+00 0.327E-04 0.404E+04 0.000E+00 0.000E+00 0.000E+00 0.000E+00 0.000E+00 0.551E-02     6.801     6.006     0.000
FRSE   18 000060003    6    0    1.17863E+00   576.600     0.000     0.000     0.000   117.389    88.563    92.317    96.089    29.826    17.269     0.863     2.348     0.000     0.000  1002.788  2001.822   164.246   164.246     0.000   276.840    12.718   454.302    84.805    26.316    28.503    24.129    25.511    15.425     6.712     4.492     0.000     0.000     0.000     0.000     0.000     0.000     0.000     0.000     0.000     0.000     0.011     1.095    -0.841     0.003     0.187     0.132     0.260     0.000     0.000     0.000    21.131     2.581     2.060     0.004     0.430     0.876     0.001     0.010     0.000     0.000     0.000     0.000     0.000     0.000     0.000     0.000 .00000E+00 .00000E+00 0.286E-04 0.404E+04 0.000E+00 0.000E+00 0.000E+00 0.000E+00 0.000E+00 0.430E+00     0.497   276.840     0.000
FRSE   19 000070001    7    0    1.98498E-02   576.600     0.000     0.000     0.000   117.393    95.880   144.811   148.689    93.334    58.133     2.907     2.348     0.000     0.000  1019.668  2006.676    68.334    68.334     0.000   309.824    46.440   426.489    73.720    26.316    28.503    24.129    24.383    15.425     3.752    10.262     0.000     0.000     0.000     0.000     0.000     0.000     0.000     0.000     0.000     0.000     0.014     1.264    -0.986     0.003     0.216    -0.131     0.221     0.000     0.000     0.000    20.497     2.503     1.884     0.002     0.467     0.826     0.006     0.007     0.000     0.000     0.000     0.000     0.000     0.000     0.000     0.000 .00000E+00 .00000E+00 0.858E-05 0.439E+04 0.000E+00 0.000E+00 0.000E+00 0.000E+00 0.000E+00 0.467E+00     1.892   309.824     0.000
FRSE   20 000070002    7    0    1.10259E-03   576.600     0.000     0.000     0.000   117.393    90.109    92.966    96.136   318.973   206.563    10.328     2.348     0.000     0.000  1086.723  2024.320   165.588   149.797     0.000     0.016   168.154   324.943    84.923    26.316    28.503    24.129    25.523    15.425     0.000     0.104     0.000     0.000     0.000     0.000     0.000     0.000     0.000     0.000     0.000     0.000     0.009     1.152    -0.914     0.002     0.197    -0.293    -0.194     0.000     0.000     0.000     0.000     0.000     0.000     0.003     0.000     1.804     0.052     0.038     0.000     0.000     0.000     0.000     0.000     0.000     0.000     0.000 .00000E+00 .00000E+00 0.343E-04 0.404E+04 0.000E+00 0.000E+00 0.000E+00 0.000E+00 0.000E+00 0.187E-04     6.975     0.016     0.000
FRSE   21 000070003    7    0    1.10259E-03   576.600     0.000     0.000     0.000   117.393    90.106    92.939    96.087   311.459   201.561    10.078     2.348     0.000     0.000  1083.852  2023.720   165.513   165.039     0.000     6.006   164.019   341.865    84.918    26.316    28.503    24.129    25.523    15.425     0.338     0.698     0.000     0.000     0.000     0.000     0.000     0.000     0.000     0.000     0.000     0.000     0.008     1.140    -0.905     0.002     0.195    -0.271    -0.173     0.000     0.000     0.000     4.782     0.584     0.423     0.003     0.006     1.769     0.050     0.033     0.000     0.000     0.000     0.000     0.000     0.000     0.000     0.000 .00000E+00 .00000E+00 0.327E-04 0.404E+04 0.000E+00 0.000E+00 0.000E+00 0.000E+00 0.000E+00 0.554E-02     6.801     6.006     0.000
FRSE   22 000070004    7    0    1.18951E+00   576.600     0.000     0.000     0.000   117.393    88.427    92.246    96.089    25.944    14.821     0.741     2.348     0.000     0.000  1004.131  2001.542   164.161   164.161     0.000   280.632     8.139   453.352    84.792    26.316    28.503    24.129    25.510    15.425     7.390     7.265     0.000     0.000     0.000     0.000     0.000     0.000     0.000     0.000     0.000     0.000     0.011     1.094    -0.838     0.003     0.187     0.140     0.267     0.000     0.000     0.000    21.841     2.668     2.131     0.004     0.436     0.786     0.001     0.010     0.000     0.000     0.000     0.000     0.000     0.000     0.000     0.000 .00000E+00 .00000E+00 0.277E-04 0.404E+04 0.000E+00 0.000E+00 0.000E+00 0.000E+00 0.000E+00 0.436E+00     0.420   280.632     0.000
FRSE   23 000080001    8    0    1.58278E-01   576.600     0.000     0.000     0.000   117.367    87.758    91.688    96.088    12.588     6.583     0.329     2.347     0.000     0.000   985.029  2000.619   163.055   163.055     0.000   294.134     0.000   457.351    84.689    26.316    28.503    24.129    25.507    15.425     9.581     9.967     0.000     0.000     0.000     0.000     0.000     0.000     0.000     0.000     0.000     0.000     0.011     1.096    -0.826     0.002     0.187     0.167     0.287     0.000     0.000     0.000    24.178     2.954     2.363     0.005     0.432     0.347     0.000     0.009     0.000     0.000     0.000     0.000     0.000     0.000     0.000     0.000 .00000E+00 .00000E+00 0.248E-04 0.404E+04 0.000E+00 0.000E+00 0.000E+00 0.000E+00 0.000E+00 0.432E+00     0.161   294.134     0.000
FRSE   24 000090001    9    0    1.41041E-03   576.600     0.000     0.000     0.000   117.351    90.099    92.966    96.130   318.592   206.304    10.315     2.347     0.000     0.000  1086.583  2024.286   165.589   161.261     0.000     0.326   167.931   336.484    84.923    26.316    28.503    24.129    25.523    15.425     0.059     0.134     0.000     0.000     0.000     0.000     0.000     0.000     0.000     0.000     0.000     0.000     0.009     1.150    -0.913     0.002     0.196    -0.290    -0.192     0.000     0.000     0.000     1.134     0.138     0.098     0.003     0.000     1.800     0.052     0.039     0.000     0.000     0.000     0.000     0.000     0.000     0.000     0.000 .00000E+00 .00000E+00 0.333E-04 0.404E+04 0.000E+00 0.000E+00 0.000E+00 0.000E+00 0.000E+00 0.307E-03     6.965     0.326     0.000
FRSE   25 000090002    9    0    1.61561E-03   576.600     0.000     0.000     0.000   117.351    90.097    92.951    96.102   314.814   203.784    10.189     2.347     0.000     0.000  1085.144  2023.980   165.548   164.532     0.000     3.241   165.847   340.497    84.920    26.316    28.503    24.129    25.523    15.425     0.312     0.631     0.000     0.000     0.000     0.000     0.000     0.000     0.000     0.000     0.000     0.000     0.008     1.140    -0.905     0.002     0.195    -0.275    -0.176     0.000     0.000     0.000     4.652     0.568     0.411     0.003     0.003     1.776     0.051     0.033     0.000     0.000     0.000     0.000     0.000     0.000     0.000     0.000 .00000E+00 .00000E+00 0.332E-04 0.404E+04 0.000E+00 0.000E+00 0.000E+00 0.000E+00 0.000E+00 0.302E-02     6.877     3.241     0.000
FRSE   26 000090003    9    0    1.38732E+00   576.600     0.000     0.000     0.000   117.351    87.356    91.234    96.086     7.734     3.657     0.183     2.347     0.000     0.000   900.800  2000.299   161.758   161.758     0.000   299.883     0.000   461.714    84.604    26.316    28.503    24.129    25.505    15.425    15.042     8.971     0.000     0.000     0.000     0.000     0.000     0.000     0.000     0.000     0.000     0.000     0.009     1.094    -0.816     0.002     0.187     0.181     0.297     0.000     0.000     0.000    27.815     3.397     2.733     0.005     0.412     0.156     0.000     0.008     0.000     0.000     0.000     0.000     0.000     0.000     0.000     0.000 .00000E+00 .00000E+00 0.239E-04 0.404E+04 0.000E+00 0.000E+00 0.000E+00 0.000E+00 0.000E+00 0.412E+00     0.073   299.883     0.000
SWCH   27 000100001   10    0    1.10260E-03   576.600     0.000     0.000     0.000   117.324    83.668   162.107   165.272   397.394   265.964    13.298     2.346     0.000     0.000  1124.990  2030.211    91.894    91.021     0.000     1.212   221.563   322.397    77.246    26.316    28.503    24.129    24.432    15.425     0.000     0.002     0.000     0.000     0.000     0.000     0.000     0.000     0.000     0.000     0.000     0.000     4.611     1.877    -0.976     1.198     0.322     1.039     0.921     0.000     0.000     0.000     0.000     0.000     0.000     0.048     0.005     7.859     0.186     0.043     0.000     0.000     0.000     0.000     0.000     0.000     0.000     0.000 .00000E+00 .00000E+00 0.983E-05 0.444E+04 0.000E+00 0.000E+00 0.000E+00 0.000E+00 0.000E+00 0.526E-02     8.601     1.212     0.000
SWCH   28 000100002   10    0    1.10260E-03   576.600     0.000     0.000     0.000   117.324    83.519   161.716   164.787   193.846   127.163     6.358     2.346     0.000     0.000  1062.909  2013.856    91.420    91.420     0.000   192.323   104.263   391.897    77.193    26.316    28.503    24.129    24.435    15.425     0.000     0.049     0.000     0.000     0.000     0.000     0.000     0.000     0.000     0.000     0.000     0.000     4.496     1.878    -0.960     1.181     0.322     1.158     1.009     0.000     0.000     0.000     0.000     0.000     0.000     0.055     0.850     4.108     0.047     0.045     0.000     0.000     0.000     0.000     0.000     0.000     0.000     0.000 .00000E+00 .00000E+00 0.886E-05 0.444E+04 0.000E+00 0.000E+00 0.000E+00 0.000E+00 0.000E+00 0.850E+00     3.892   192.323     0.000
FRSE   29 000100003   10    0    1.20520E-03   576.600     0.000     0.000     0.000   117.324    91.397   161.674   165.223   412.711   266.099    13.305     2.346     0.000     0.000  1123.484  2031.479    69.075    62.302     0.000     0.014   218.160   289.517    73.820    26.316    28.503    24.129    24.887    15.425     0.000     0.087     0.000     0.000     0.000     0.000     0.000     0.000     0.000     0.000     0.000     0.000     0.016     1.706    -1.346     0.004     0.291    -0.172    -0.082     0.000     0.000     0.000     0.000     0.000     0.000     0.001     0.000     2.992     0.105     0.018     0.000     0.000     0.000     0.000     0.000     0.000     0.000     0.000 .00000E+00 .00000E+00 0.108E-04 0.444E+04 0.000E+00 0.000E+00 0.000E+00 0.000E+00 0.000E+00 0.160E-04     9.041     0.014     0.000
FRSE   30 000100004   10    0    1.20520E-03   576.600     0.000     0.000     0.000   117.324    91.385   161.618   165.105   406.576   262.004    13.100     2.346     0.000     0.000  1121.086  2030.988    69.000    68.840     0.000     4.939   214.745   297.422    73.811    26.316    28.503    24.129    24.887    15.425     0.074     0.272     0.000     0.000     0.000     0.000     0.000     0.000     0.000     0.000     0.000     0.000     0.016     1.702    -1.343     0.004     0.291    -0.164    -0.077     0.000     0.000     0.000     1.137     0.139     0.092     0.001     0.004     2.978     0.103     0.019     0.000     0.000     0.000     0.000     0.000     0.000     0.000     0.000 .00000E+00 .00000E+00 0.921E-05 0.444E+04 0.000E+00 0.000E+00 0.000E+00 0.000E+00 0.000E+00 0.446E-02     8.897     4.939     0.000
FRSE   31 000100005   10    0    1.87212E-02   576.600     0.000     0.000     0.000   117.324    90.931   161.227   164.684   210.874   133.618     6.681     2.346     0.000     0.000  1043.973  2015.571    68.574    68.574     0.000   188.237   108.374   369.628    73.751    26.316    28.503    24.129    24.880    15.425     0.866     1.387     0.000     0.000     0.000     0.000     0.000     0.000     0.000     0.000     0.000     0.000     0.019     1.678    -1.320     0.004     0.287     0.027     0.090     0.000     0.000     0.000     8.041     0.982     0.715     0.001     0.203     2.598     0.046     0.011     0.000     0.000     0.000     0.000     0.000     0.000     0.000     0.000 .00000E+00 .00000E+00 0.900E-05 0.444E+04 0.000E+00 0.000E+00 0.000E+00 0.000E+00 0.000E+00 0.203E+00     4.443   188.237     0.000
FRSE   32 000100006   10    0    1.16827E+00   576.600     0.000     0.000     0.000   117.324    87.424    91.321    96.084     8.546     4.140     0.207     2.346     0.000     0.000   914.360  2000.347   162.012   162.012     0.000   298.901     0.000   461.000    84.620    26.316    28.503    24.129    25.505    15.425    13.009     4.216     0.000     0.000     0.000     0.000     0.000     0.000     0.000     0.000     0.000     0.000     0.010     1.095    -0.818     0.002     0.187     0.179     0.295     0.000     0.000     0.000    26.640     3.254     2.613     0.005     0.416     0.187     0.000     0.009     0.000     0.000     0.000     0.000     0.000     0.000     0.000     0.000 .00000E+00 .00000E+00 0.243E-04 0.404E+04 0.000E+00 0.000E+00 0.000E+00 0.000E+00 0.000E+00 0.416E+00     0.087   298.901     0.000
SWCH   33 000110001   11    0    1.10260E-03   576.600     0.000     0.000     0.000   117.323    83.649   161.907   164.851   375.405   250.576    12.529     2.346     0.000     0.000  1116.271  2028.376    91.610    91.587     0.000    20.239   208.555   328.453    77.219    26.316    28.503    24.129    24.431    15.425     0.000     0.013     0.000     0.000     0.000     0.000     0.000     0.000     0.000     0.000     0.000     0.000     4.616     1.876    -0.974     1.199     0.322     1.055     0.934     0.000     0.000     0.000     0.000     0.000     0.000     0.049     0.089     7.496     0.168     0.043     0.000     0.000     0.000     0.000     0.000     0.000     0.000     0.000 .00000E+00 .00000E+00 0.948E-05 0.444E+04 0.000E+00 0.000E+00 0.000E+00 0.000E+00 0.000E+00 0.890E-01     8.071    20.239     0.000
FRSE   34 000110002   11    0    1.43092E-02   576.600     0.000     0.000     0.000   117.323    90.418   161.052   164.685    94.558    58.144     2.907     2.346     0.000     0.000  1020.916  2006.571    68.466    68.466     0.000   305.237    46.057   421.614    73.723    26.316    28.503    24.129    24.877    15.425     0.979     2.588     0.000     0.000     0.000     0.000     0.000     0.000     0.000     0.000     0.000     0.000     0.031     1.681    -1.307     0.004     0.287     0.144     0.180     0.000     0.000     0.000     8.790     1.073     0.793     0.002     0.390     2.003     0.014     0.011     0.000     0.000     0.000     0.000     0.000     0.000     0.000     0.000 .00000E+00 .00000E+00 0.894E-05 0.444E+04 0.000E+00 0.000E+00 0.000E+00 0.000E+00 0.000E+00 0.390E+00     1.854   305.237     0.000
FRSE   35 000110003   11    0    1.10465E-01   576.600     0.000     0.000     0.000   117.323    87.349    91.230    96.084     6.267     2.948     0.147     2.346     0.000     0.000   878.021  2000.238   161.739   161.739     0.000   301.308     0.000   463.105    84.603    26.316    28.503    24.129    25.505    15.425    16.939    15.554     0.000     0.000     0.000     0.000     0.000     0.000     0.000     0.000     0.000     0.000     0.008     1.093    -0.815     0.002     0.187     0.183     0.297     0.000     0.000     0.000    28.719     3.507     2.825     0.005     0.421     0.121     0.000     0.008     0.000     0.000     0.000     0.000     0.000     0.000     0.000     0.000 .00000E+00 .00000E+00 0.242E-04 0.404E+04 0.000E+00 0.341E+04 0.121E+06 0.000E+00 0.000E+00 0.421E+00     0.058   301.308     0.000
FRSE    1 000010001    1    0    2.10260E-03   144.700     0.000     0.000     0.000   106.927    72.584   131.271    96.871   101.192   233.528    11.676     2.139     0.000     0.000  1110.284  2032.444    19.964    20.145     0.000     3.678   225.897   258.658    71.480    26.895    29.579    24.211    24.452    16.480     0.098     0.143     0.000     0.000     0.000     0.000     0.000     0.000     0.000     0.000     0.000     0.000     0.009     1.065    -0.942     0.002     0.182    -0.720    -0.331     0.000     2.369     0.716     1.767     0.216     0.138     0.000     0.004     0.484     0.082     0.006     0.000     0.000     0.034     7.729     0.000     1.398     4.921     0.011 .00000E+00 .00000E+00 0.000E+00 0.439E+04 0.000E+00 0.000E+00 0.000E+00 0.000E+00 0.000E+00 0.401E-02     8.938     3.678     0.000
FRSE    2 000010002    1    0    2.45658E-01   144.700     0.000     0.000     0.000   106.927    73.029   131.140    96.401     7.979    16.385     0.819     2.139     0.000     0.000  1003.775  2001.954    19.963    19.963     0.000    96.163    14.008   130.657    71.456    26.895    29.579    24.211    24.423    16.480     3.892     8.273     0.000     0.000     0.000     0.000     0.000     0.000     0.000     0.000     0.000     0.000     0.005     1.006    -0.881     0.001     0.172    -0.670     0.024     0.000     4.167     1.101     8.520     1.040     0.794     0.000     0.091     0.077     0.001     0.001     0.000     0.000     0.034     1.929     0.000     2.149     5.000     0.017 .00000E+00 .00000E+00 0.000E+00 0.439E+04 0.000E+00 0.000E+00 0.000E+00 0.000E+00 0.000E+00 0.911E-01     0.523    96.163     0.000
FRSE    3 000010003    1    0    2.20521E-03   144.700     0.000     0.000     0.000   106.927    60.408    82.124    55.727    82.441   188.792     9.440     2.139     0.000     0.000  1080.423  2026.458    42.257    58.052     0.000     0.011   183.510   248.876    82.646    26.895    29.579    24.211    25.708    16.480     0.007     0.044     0.000     0.000     0.000     0.000     0.000     0.000     0.000     0.000     0.000     0.000     0.006     0.944    -0.828     0.001     0.161    -0.350    -0.224     0.000     1.126     0.362     0.186     0.023     0.016     0.000     0.000     0.320     0.050     0.014     0.000     0.000     0.034    13.757     0.000     0.713     3.229     0.006 .00000E+00 .00000E+00 0.195E-05 0.404E+04 0.000E+00 0.000E+00 0.000E+00 0.000E+00 0.000E+00 0.307E-05     7.303     0.011     0.000
FRSE    4 000010004    1    0    2.82082E-03   144.700     0.000     0.000     0.000   106.927    60.362    82.130    55.773    81.355   186.303     9.315     2.139     0.000     0.000  1078.933  2026.096    42.252    43.268     0.000     2.262   181.061   233.795    82.647    26.895    29.579    24.211    25.709    16.480     0.141     0.193     0.000     0.000     0.000     0.000     0.000     0.000     0.000     0.000     0.000     0.000     0.005     0.935    -0.820     0.001     0.160    -0.342    -0.199     0.000     1.119     0.360     1.554     0.190     0.137     0.000     0.002     0.314     0.049     0.008     0.000     0.000     0.034    13.797     0.000     0.709     3.219     0.006 .00000E+00 .00000E+00 0.170E-05 0.404E+04 0.000E+00 0.000E+00 0.000E+00 0.000E+00 0.000E+00 0.161E-02     7.204     2.262     0.000
FRSE    5 000010005    1    0    2.11081E+00   144.700     0.000     0.000     0.000   106.927    68.596    80.223    47.509     5.991    11.551     0.578     2.139     0.000     0.000  1002.688  2001.289    42.250    42.250     0.000    85.985     9.440   138.015    82.145    26.895    29.579    24.211    25.638    16.480     4.146     3.109     0.000     0.000     0.000     0.000     0.000     0.000     0.000     0.000     0.000     0.000     0.006     0.888    -0.754     0.001     0.152    -0.594     0.026     0.000     4.487     1.140     6.396     0.781     0.625     0.000     0.118     0.191     0.001     0.002     0.000     0.000     0.034     1.382     0.000     2.229     5.000     0.018 .00000E+00 .00000E+00 0.136E-05 0.404E+04 0.000E+00 0.000E+00 0.000E+00 0.000E+00 0.000E+00 0.118E+00     0.340    85.985     0.000
FRSE    6 000020001    2    0    2.58484E-02   144.700     0.000     0.000     0.000   106.803    70.266   148.132   114.430    25.689    56.801     2.840     2.136     0.000     0.000  1019.288  2007.457    19.966    19.966     0.000    89.367    53.670   165.034    71.544    26.895    29.579    24.211    24.969    16.480     0.579     0.723     0.000     0.000     0.000     0.000     0.000     0.000     0.000     0.000     0.000     0.000     0.019     1.441    -1.184     0.003     0.246    -0.594    -0.031     0.000     5.945     1.220     3.648     0.445     0.328     0.000     0.091     0.474     0.018     0.003     0.000     0.000     0.034     0.274     0.000     2.397     5.000     0.020 .00000E+00 .00000E+00 0.000E+00 0.444E+04 0.000E+00 0.000E+00 0.000E+00 0.000E+00 0.000E+00 0.908E-01     2.031    89.367     0.000
FRSE    7 000020002    2    0    2.13544E+00   144.700     0.000     0.000     0.000   106.803    68.515    80.236    47.573     2.492     4.143     0.207     2.136     0.000     0.000   887.525  2000.368    42.253    42.253     0.000    89.949     0.000   132.294    82.149    26.895    29.579    24.211    25.636    16.480     9.539     9.450     0.000     0.000     0.000     0.000     0.000     0.000     0.000     0.000     0.000     0.000     0.004     0.888    -0.738     0.001     0.152    -0.597     0.040     0.000     5.803     1.218     7.091     0.866     0.701     0.000     0.123     0.065     0.000     0.001     0.000     0.000     0.034     0.304     0.000     2.392     5.000     0.019 .00000E+00 .00000E+00 0.125E-05 0.404E+04 0.000E+00 0.000E+00 0.000E+00 0.000E+00 0.000E+00 0.123E+00     0.093    89.949     0.000
FRSE    8 000030001    3    0    2.20521E-03   144.700     0.000     0.000     0.000   106.928    72.576   131.256    96.862   100.586   232.139    11.607     2.139     0.000     0.000  1109.377  2032.246    19.963    20.112     0.000     4.461   224.544   258.000    71.478    26.895    29.579    24.211    24.452    16.480     0.138     0.313     0.000     0.000     0.000     0.000     0.000     0.000     0.000     0.000     0.000     0.000     0.009     1.060    -0.938     0.002     0.181    -0.716    -0.320     0.000     2.363     0.714     2.288     0.279     0.181     0.000     0.005     0.480     0.081     0.006     0.000     0.000     0.034     7.756     0.000     1.395     4.919     0.011 .00000E+00 .00000E+00 0.000E+00 0.439E+04 0.000E+00 0.000E+00 0.000E+00 0.000E+00 0.000E+00 0.485E-02     8.884     4.461     0.000
FRSE    9 000030002    3    0    2.62690E-01   144.700     0.000     0.000     0.000   106.928    72.981   131.154    96.452    41.007    93.089     4.654     2.139     0.000     0.000  1033.502  2012.666    19.963    19.963     0.000    64.361    89.236   177.036    71.458    26.895    29.579    24.211    24.437    16.480     1.781     1.136     0.000     0.000     0.000     0.000     0.000     0.000     0.000     0.000     0.000     0.000     0.006     1.012    -0.896     0.002     0.173    -0.690    -0.118     0.000     2.928     0.860     6.899     0.842     0.630     0.000     0.070     0.268     0.018     0.002     0.000     0.000     0.034     5.461     0.000     1.676     4.998     0.014 .00000E+00 .00000E+00 0.000E+00 0.439E+04 0.000E+00 0.000E+00 0.000E+00 0.000E+00 0.000E+00 0.703E-01     3.477    64.361     0.000
FRSE   10 000030003    3    0    2.14806E+00   144.700     0.000     0.000     0.000   106.928    68.597    80.223    47.509     6.375    12.395     0.620     2.139     0.000     0.000  1002.865  2001.402    42.250    42.250     0.000    85.552    10.236   138.408    82.145    26.895    29.579    24.211    25.638    16.480     4.113     0.732     0.000     0.000     0.000     0.000     0.000     0.000     0.000     0.000     0.000     0.000     0.006     0.888    -0.755     0.001     0.152    -0.589     0.024     0.000     4.347     1.124     6.361     0.777     0.622     0.000     0.116     0.200     0.001     0.002     0.000     0.000     0.034     1.607     0.000     2.196     5.000     0.018 .00000E+00 .00000E+00 0.137E-05 0.404E+04 0.000E+00 0.000E+00 0.000E+00 0.000E+00 0.000E+00 0.116E+00     0.371    85.552     0.000
FRSE   11 000040001    4    0    2.18489E+00   144.700     0.000     0.000     0.000   106.839    68.539    80.232    47.553     3.356     5.817     0.291     2.137     0.000     0.000   932.357  2000.564    42.252    42.252     0.000    88.966     0.000   131.360    82.148    26.895    29.579    24.211    25.636    16.480     6.360     1.367     0.000     0.000     0.000     0.000     0.000     0.000     0.000     0.000     0.000     0.000     0.005     0.889    -0.742     0.001     0.152    -0.602     0.038     0.000     5.608     1.213     6.928     0.846     0.681     0.000     0.121     0.099     0.000     0.001     0.000     0.000     0.034     0.375     0.000     2.381     5.000     0.019 .00000E+00 .00000E+00 0.126E-05 0.404E+04 0.000E+00 0.000E+00 0.000E+00 0.000E+00 0.000E+00 0.121E+00     0.141    88.966     0.000
FRSE   12 000050001    5    0    2.10260E-03   144.700     0.000     0.000     0.000   106.912    72.575   131.276    96.878   101.330   233.810    11.690     2.138     0.000     0.000  1110.463  2032.480    19.965    20.153     0.000     3.521   226.169   258.792    71.481    26.895    29.579    24.211    24.452    16.480     0.093     0.265     0.000     0.000     0.000     0.000     0.000     0.000     0.000     0.000     0.000     0.000     0.009     1.066    -0.943     0.002     0.182    -0.720    -0.332     0.000     2.370     0.716     1.692     0.207     0.132     0.000     0.004     0.485     0.082     0.006     0.000     0.000     0.034     7.727     0.000     1.399     4.921     0.011 .00000E+00 .00000E+00 0.000E+00 0.439E+04 0.000E+00 0.000E+00 0.000E+00 0.000E+00 0.000E+00 0.384E-02     8.949     3.521     0.000
FRSE   13 000050002    5    0    2.26574E-01   144.700     0.000     0.000     0.000   106.912    72.971   131.157    96.460    40.819    92.651     4.633     2.138     0.000     0.000  1033.317  2012.612    19.963    19.963     0.000    64.555    88.810   176.788    71.459    26.895    29.579    24.211    24.437    16.480     1.621     1.418     0.000     0.000     0.000     0.000     0.000     0.000     0.000     0.000     0.000     0.000     0.007     1.013    -0.897     0.002     0.173    -0.692    -0.120     0.000     2.937     0.862     6.742     0.823     0.614     0.000     0.071     0.268     0.018     0.002     0.000     0.000     0.034     5.430     0.000     1.680     4.998     0.014 .00000E+00 .00000E+00 0.000E+00 0.439E+04 0.000E+00 0.000E+00 0.000E+00 0.000E+00 0.000E+00 0.707E-01     3.460    64.555     0.000
FRSE   14 000050003    5    0    2.20520E-03   144.700     0.000     0.000     0.000   106.912    60.375    82.124    55.758    80.781   184.988     9.249     2.138     0.000     0.000  1078.115  2025.907    42.249    42.802     0.000     3.207   179.766   232.926    82.646    26.895    29.579    24.211    25.709    16.480     0.137     0.044     0.000     0.000     0.000     0.000     0.000     0.000     0.000     0.000     0.000     0.000     0.005     0.936    -0.820     0.001     0.160    -0.342    -0.200     0.000     1.122     0.361     1.432     0.175     0.126     0.000     0.002     0.314     0.048     0.008     0.000     0.000     0.034    13.773     0.000     0.711     3.223     0.006 .00000E+00 .00000E+00 0.170E-05 0.404E+04 0.000E+00 0.000E+00 0.000E+00 0.000E+00 0.000E+00 0.222E-02     7.151     3.207     0.000
FRSE   15 000050004    5    0    2.17750E+00   144.700     0.000     0.000     0.000   106.912    68.542    80.244    47.568    11.865    24.656     1.233     2.138     0.000     0.000  1003.767  2003.038    42.250    42.250     0.000    79.353    22.749   145.171    82.151    26.895    29.579    24.211    25.648    16.480     2.623     0.851     0.000     0.000     0.000     0.000     0.000     0.000     0.000     0.000     0.000     0.000     0.006     0.888    -0.767     0.001     0.152    -0.491     0.010     0.000     2.952     0.868     5.687     0.695     0.553     0.000     0.093     0.258     0.004     0.002     0.000     0.000     0.034     5.329     0.000     1.691     4.999     0.014 .00000E+00 .00000E+00 0.159E-05 0.404E+04 0.000E+00 0.000E+00 0.000E+00 0.000E+00 0.000E+00 0.928E-01     0.819    79.353     0.000
FRSE   16 000060001    6    0    2.10260E-03   144.700     0.000     0.000     0.000   106.880    60.381    82.131    55.747    82.444   188.798     9.440     2.138     0.000     0.000  1080.438  2026.456    42.258    58.053     0.000     0.011   183.514   248.881    82.647    26.895    29.579    24.211    25.708    16.480     0.006     0.044     0.000     0.000     0.000     0.000     0.000     0.000     0.000     0.000     0.000     0.000     0.006     0.945    -0.828     0.001     0.161    -0.350    -0.225     0.000     1.127     0.362     0.149     0.018     0.013     0.000     0.000     0.320     0.050     0.014     0.000     0.000     0.034    13.754     0.000     0.714     3.229     0.006 .00000E+00 .00000E+00 0.196E-05 0.404E+04 0.000E+00 0.000E+00 0.000E+00 0.000E+00 0.000E+00 0.307E-05     7.303     0.011     0.000
FRSE   17 000060002    6    0    2.51300E-03   144.700     0.000     0.000     0.000   106.880    60.337    82.133    55.792    80.503   184.334     9.217     2.138     0.000     0.000  1077.711  2025.812    42.250    42.725     0.000     3.757   179.121   232.727    82.648    26.895    29.579    24.211    25.709    16.480     0.188     0.267     0.000     0.000     0.000     0.000     0.000     0.000     0.000     0.000     0.000     0.000     0.005     0.933    -0.818     0.001     0.159    -0.339    -0.191     0.000     1.119     0.360     1.868     0.228     0.165     0.000     0.003     0.312     0.048     0.008     0.000     0.000     0.034    13.789     0.000     0.709     3.220     0.006 .00000E+00 .00000E+00 0.171E-05 0.404E+04 0.000E+00 0.000E+00 0.000E+00 0.000E+00 0.000E+00 0.259E-02     7.124     3.757     0.000
FRSE   18 000060003    6    0    2.17863E+00   144.700     0.000     0.000     0.000   106.880    68.555    80.236    47.547     8.924    18.056     0.903     2.138     0.000     0.000  1001.413  2002.151    42.251    42.251     0.000    82.676    16.391   141.893    82.149    26.895    29.579    24.211    25.642    16.480     3.295     0.181     0.000     0.000     0.000     0.000     0.000     0.000     0.000     0.000     0.000     0.000     0.006     0.887    -0.761     0.001     0.152    -0.549     0.016     0.000     3.578     1.005     6.014     0.735     0.587     0.000     0.106     0.241     0.002     0.002     0.000     0.000     0.034     3.298     0.000     1.958     5.000     0.016 .00000E+00 .00000E+00 0.150E-05 0.404E+04 0.000E+00 0.000E+00 0.000E+00 0.000E+00 0.000E+00 0.106E+00     0.574    82.676     0.000
FRSE   19 000070001    7    0    2.98498E-02   144.700     0.000     0.000     0.000   106.890    72.988   131.150    96.437    24.758    55.443     2.772     2.138     0.000     0.000  1017.439  2007.419    19.964    19.964     0.000    80.250    52.762   155.004    71.458    26.895    29.579    24.211    24.430    16.480     2.117     0.968     0.000     0.000     0.000     0.000     0.000     0.000     0.000     0.000     0.000     0.000     0.006     1.010    -0.893     0.001     0.173    -0.706    -0.075     0.000     3.352     0.957     7.277     0.889     0.668     0.000     0.090     0.192     0.007     0.001     0.000     0.000     0.034     3.994     0.000     1.865     5.000     0.015 .00000E+00 .00000E+00 0.000E+00 0.439E+04 0.000E+00 0.000E+00 0.000E+00 0.000E+00 0.000E+00 0.897E-01     2.029    80.250     0.000
FRSE   20 000070002    7    0    2.10259E-03   144.700     0.000     0.000     0.000   106.890    60.388    82.129    55.742    82.443   188.797     9.440     2.138     0.000     0.000  1080.429  2026.457    42.258    58.053     0.000     0.011   183.513   248.880    82.647    26.895    29.579    24.211    25.708    16.480     0.006     0.044     0.000     0.000     0.000     0.000     0.000     0.000     0.000     0.000     0.000     0.000     0.006     0.945    -0.828     0.001     0.161    -0.350    -0.225     0.000     1.127     0.362     0.149     0.018     0.013     0.000     0.000     0.320     0.050     0.014     0.000     0.000     0.034    13.754     0.000     0.714     3.229     0.006 .00000E+00 .00000E+00 0.196E-05 0.404E+04 0.000E+00 0.000E+00 0.000E+00 0.000E+00 0.000E+00 0.307E-05     7.303     0.011     0.000
FRSE   21 000070003    7    0    2.10259E-03   144.700     0.000     0.000     0.000   106.890    60.362    82.126    55.768    80.502   184.333     9.217     2.138     0.000     0.000  1077.710  2025.813    42.250    42.724     0.000     3.757   179.121   232.726    82.647    26.895    29.579    24.211    25.709    16.480     0.155     0.267     0.000     0.000     0.000     0.000     0.000     0.000     0.000     0.000     0.000     0.000     0.005     0.935    -0.820     0.001     0.160    -0.341    -0.197     0.000     1.122     0.361     1.579     0.193     0.139     0.000     0.003     0.313     0.048     0.008     0.000     0.000     0.034    13.771     0.000     0.711     3.224     0.006 .00000E+00 .00000E+00 0.171E-05 0.404E+04 0.000E+00 0.000E+00 0.000E+00 0.000E+00 0.000E+00 0.260E-02     7.124     3.757     0.000
FRSE   22 000070004    7    0    2.18951E+00   144.700     0.000     0.000     0.000   106.890    68.567    80.232    47.535     7.886    15.744     0.787     2.138     0.000     0.000  1003.543  2001.838    42.251    42.251     0.000    83.847    13.407   139.996    82.148    26.895    29.579    24.211    25.640    16.480     3.640     0.629     0.000     0.000     0.000     0.000     0.000     0.000     0.000     0.000     0.000     0.000     0.006     0.887    -0.759     0.001     0.152    -0.568     0.019     0.000     3.861     1.056     6.158     0.752     0.601     0.000     0.110     0.228     0.002     0.002     0.000     0.000     0.034     2.578     0.000     2.059     5.000     0.017 .00000E+00 .00000E+00 0.145E-05 0.404E+04 0.000E+00 0.000E+00 0.000E+00 0.000E+00 0.000E+00 0.110E+00     0.490    83.847     0.000
FRSE   23 000080001    8    0    2.58278E-01   144.700     0.000     0.000     0.000   106.831    68.532    80.237    47.559     4.262     7.773     0.389     2.137     0.000     0.000   990.277  2000.800    42.252    42.252     0.000    87.944     0.000   130.404    82.149    26.895    29.579    24.211    25.637    16.480     4.797     3.871     0.000     0.000     0.000     0.000     0.000     0.000     0.000     0.000     0.000     0.000     0.006     0.889    -0.748     0.001     0.152    -0.603     0.033     0.000     5.195     1.194     6.649     0.812     0.651     0.000     0.121     0.136     0.000     0.002     0.000     0.000     0.034     0.638     0.000     2.341     5.000     0.019 .00000E+00 .00000E+00 0.130E-05 0.404E+04 0.000E+00 0.000E+00 0.000E+00 0.000E+00 0.000E+00 0.121E+00     0.208    87.944     0.000
FRSE   24 000090001    9    0    2.41041E-03   144.700     0.000     0.000     0.000   106.794    60.317    82.146    55.800    82.346   188.569     9.428     2.136     0.000     0.000  1080.303  2026.422    42.260    46.587     0.000     0.228   183.285   237.392    82.651    26.895    29.579    24.211    25.709    16.480     0.020     0.040     0.000     0.000     0.000     0.000     0.000     0.000     0.000     0.000     0.000     0.000     0.006     0.943    -0.827     0.001     0.161    -0.349    -0.221     0.000     1.125     0.362     0.345     0.042     0.030     0.000     0.000     0.319     0.050     0.011     0.000     0.000     0.034    13.763     0.000     0.713     3.227     0.006 .00000E+00 .00000E+00 0.174E-05 0.404E+04 0.000E+00 0.000E+00 0.000E+00 0.000E+00 0.000E+00 0.164E-03     7.293     0.228     0.000
FRSE   25 000090002    9    0    2.61561E-03   144.700     0.000     0.000     0.000   106.794    60.281    82.150    55.836    81.365   186.320     9.316     2.136     0.000     0.000  1078.940  2026.093    42.255    43.271     0.000     2.262   181.071   233.807    82.652    26.895    29.579    24.211    25.709    16.480     0.136     0.057     0.000     0.000     0.000     0.000     0.000     0.000     0.000     0.000     0.000     0.000     0.005     0.936    -0.820     0.001     0.160    -0.342    -0.200     0.000     1.120     0.360     1.512     0.185     0.133     0.000     0.002     0.315     0.049     0.008     0.000     0.000     0.034    13.794     0.000     0.709     3.220     0.006 .00000E+00 .00000E+00 0.174E-05 0.404E+04 0.000E+00 0.000E+00 0.000E+00 0.000E+00 0.000E+00 0.162E-02     7.203     2.262     0.000
FRSE   26 000090003    9    0    2.38732E+00   144.700     0.000     0.000     0.000   106.794    68.509    80.237    47.578     2.885     4.816     0.241     2.136     0.000     0.000   903.239  2000.432    42.253    42.253     0.000    89.501     0.000   131.862    82.150    26.895    29.579    24.211    25.636    16.480     7.589     6.629     0.000     0.000     0.000     0.000     0.000     0.000     0.000     0.000     0.000     0.000     0.004     0.889    -0.739     0.001     0.152    -0.599     0.040     0.000     5.822     1.219     7.074     0.864     0.697     0.000     0.120     0.078     0.000     0.001     0.000     0.000     0.034     0.298     0.000     2.393     5.000     0.019 .00000E+00 .00000E+00 0.125E-05 0.404E+04 0.000E+00 0.000E+00 0.000E+00 0.000E+00 0.000E+00 0.120E+00     0.109    89.501     0.000
SWCH   27 000100001   10    0    2.10260E-03   144.700     0.000     0.000     0.000   106.733    73.751   148.608   109.717   100.820   237.560    11.878     2.135     0.000     0.000  1114.586  2032.996    25.292    26.164     0.000     0.845   233.952   270.055    75.216    26.895    29.579    24.211    24.600    16.480     0.000     0.000     0.000     0.000   122.554     0.000     0.000     0.000     0.000     0.000     0.000     0.000     3.271     1.599    -0.882     0.851     0.274    -0.684     0.362     0.000    37.348     3.288     0.000     0.000     0.000     0.005     0.003     1.748     0.241     0.011     0.000     0.000     0.092     3.341     0.000     2.460     4.885     0.003 .00000E+00 .00000E+00 0.000E+00 0.444E+04 0.000E+00 0.000E+00 0.000E+00 0.000E+00 0.000E+00 0.296E-02     9.093     0.845     0.000
SWCH   28 000100002   10    0    2.10260E-03   144.700     0.000     0.000     0.000   106.733    73.705   148.528   109.764    49.741   115.550     5.777     2.135     0.000     0.000  1057.886  2015.416    25.263    25.263     0.000    63.787   112.660   205.928    75.205    26.895    29.579    24.211    24.605    16.480     0.000     0.006     0.000     0.000   118.238     0.000     0.000     0.000     0.000     0.000     0.000     0.000     3.156     1.600    -0.868     0.830     0.274    -0.573     0.441     0.000    37.545     3.300     0.000     0.000     0.000     0.005     0.210     1.065     0.068     0.011     0.000     0.000     0.092     3.260     0.000     2.473     4.795     0.003 .00000E+00 .00000E+00 0.000E+00 0.444E+04 0.000E+00 0.000E+00 0.000E+00 0.000E+00 0.000E+00 0.210E+00     4.218    63.787     0.000
FRSE   29 000100003   10    0    2.20520E-03   144.700     0.000     0.000     0.000   106.733    69.559   148.413   115.169   105.198   243.870    12.193     2.135     0.000     0.000  1116.150  2034.225    19.992    26.766     0.000     0.010   236.876   273.099    71.593    26.895    29.579    24.211    25.000    16.480     0.000     0.038     0.000     0.000     0.000     0.000     0.000     0.000     0.000     0.000     0.000     0.000     0.011     1.462    -1.219     0.002     0.250    -0.512    -0.222     0.000     2.459     0.728     0.000     0.000     0.000     0.000     0.000     0.568     0.103     0.008     0.000     0.000     0.034     7.599     0.000     1.426     4.881     0.012 .00000E+00 .00000E+00 0.000E+00 0.444E+04 0.000E+00 0.000E+00 0.000E+00 0.000E+00 0.000E+00 0.206E-05     9.447     0.010     0.000
FRSE   30 000100004   10    0    2.20520E-03   144.700     0.000     0.000     0.000   106.733    69.593   148.384   115.130   103.533   240.172    12.009     2.135     0.000     0.000  1113.859  2033.697    19.986    20.147     0.000     3.134   233.256   265.836    71.588    26.895    29.579    24.211    25.000    16.480     0.042     0.144     0.000     0.000     0.000     0.000     0.000     0.000     0.000     0.000     0.000     0.000     0.011     1.459    -1.217     0.002     0.249    -0.510    -0.214     0.000     2.472     0.731     0.497     0.061     0.040     0.000     0.002     0.565     0.101     0.005     0.000     0.000     0.034     7.542     0.000     1.433     4.889     0.012 .00000E+00 .00000E+00 0.000E+00 0.444E+04 0.000E+00 0.000E+00 0.000E+00 0.000E+00 0.000E+00 0.217E-02     9.300     3.134     0.000
FRSE   31 000100005   10    0    2.87212E-02   144.700     0.000     0.000     0.000   106.733    70.205   148.147   114.487    54.616   124.812     6.241     2.135     0.000     0.000  1040.330  2017.110    19.967    19.967     0.000    62.838   120.080   207.585    71.546    26.895    29.579    24.211    24.977    16.480     0.493     0.731     0.000     0.000     0.000     0.000     0.000     0.000     0.000     0.000     0.000     0.000     0.012     1.439    -1.196     0.003     0.246    -0.566    -0.098     0.000     3.593     0.994     3.371     0.412     0.298     0.000     0.049     0.535     0.050     0.003     0.000     0.000     0.034     3.471     0.000     1.941     5.000     0.016 .00000E+00 .00000E+00 0.000E+00 0.444E+04 0.000E+00 0.000E+00 0.000E+00 0.000E+00 0.000E+00 0.494E-01     4.701    62.838     0.000
FRSE   32 000100006   10    0    2.16827E+00   144.700     0.000     0.000     0.000   106.733    68.468    80.248    47.610     3.120     5.312     0.266     2.135     0.000     0.000   917.272  2000.488    42.255    42.255     0.000    89.240     0.000   131.619    82.153    26.895    29.579    24.211    25.636    16.480     6.556     6.868     0.000     0.000     0.000     0.000     0.000     0.000     0.000     0.000     0.000     0.000     0.005     0.890    -0.741     0.001     0.152    -0.601     0.039     0.000     5.721     1.216     6.983     0.853     0.687     0.000     0.120     0.088     0.000     0.001     0.000     0.000     0.034     0.332     0.000     2.388     5.000     0.019 .00000E+00 .00000E+00 0.127E-05 0.404E+04 0.000E+00 0.000E+00 0.000E+00 0.000E+00 0.000E+00 0.120E+00     0.125    89.240     0.000
SWCH   33 000110001   11    0    2.10260E-03   144.700     0.000     0.000     0.000   106.729    73.788   148.528   109.668    94.778   223.939    11.197     2.135     0.000     0.000  1106.414  2031.026    25.267    25.290     0.000    10.792   220.464   265.093    75.205    26.895    29.579    24.211    24.599    16.480     0.000     0.007     0.000     0.000   122.587     0.000     0.000     0.000     0.000     0.000     0.000     0.000     3.273     1.598    -0.880     0.852     0.274    -0.685     0.369     0.000    37.525     3.297     0.000     0.000     0.000     0.004     0.036     1.682     0.219     0.011     0.000     0.000     0.092     3.302     0.000     2.472     4.912     0.003 .00000E+00 .00000E+00 0.000E+00 0.444E+04 0.000E+00 0.000E+00 0.000E+00 0.000E+00 0.000E+00 0.361E-01     8.547    10.792     0.000
FRSE   34 000110002   11    0    2.43092E-02   144.700     0.000     0.000     0.000   106.729    70.217   148.144   114.470    25.475    56.298     2.815     2.135     0.000     0.000  1019.085  2007.374    19.967    19.967     0.000    89.617    53.179   164.774    71.546    26.895    29.579    24.211    24.969    16.480     0.564     0.731     0.000     0.000     0.000     0.000     0.000     0.000     0.000     0.000     0.000     0.000     0.019     1.441    -1.184     0.003     0.246    -0.594    -0.032     0.000     5.979     1.223     3.618     0.442     0.325     0.000     0.091     0.474     0.017     0.003     0.000     0.000     0.034     0.241     0.000     2.402     5.000     0.020 .00000E+00 .00000E+00 0.000E+00 0.444E+04 0.000E+00 0.000E+00 0.000E+00 0.000E+00 0.000E+00 0.914E-01     2.011    89.617     0.000
FRSE   35 000110003   11    0    2.10465E-01   144.700     0.000     0.000     0.000   106.729    68.466    80.248    47.612     2.348     3.904     0.195     2.135     0.000     0.000   879.594  2000.346    42.255    42.255     0.000    90.119     0.000   132.461    82.152    26.895    29.579    24.211    25.637    16.480     8.553    11.480     0.000     0.000     0.000     0.000     0.000     0.000     0.000     0.000     0.000     0.000     0.004     0.889    -0.738     0.001     0.152    -0.598     0.041     0.000     5.807     1.218     7.095     0.866     0.700     0.000     0.124     0.061     0.000     0.001     0.000     0.000     0.034     0.303     0.000     2.392     5.000     0.019 .00000E+00 .00000E+00 0.126E-05 0.404E+04 0.000E+00 0.341E+04 0.121E+06 0.000E+00 0.000E+00 0.124E+00     0.087    90.119     0.000
FRSE    1 000010001    1    0    3.10260E-03    93.800     0.000     0.000     0.000   115.533    89.768    88.540   100.598     0.000   108.342     5.417     2.311     0.000     0.000  1036.783  2028.314     0.000     0.000     0.000     0.301   174.116   183.963    63.385    26.877    29.777    23.977    23.964    16.583     0.000     0.000     0.000     0.000     0.000     0.000     0.000     0.000     0.000     0.000     0.000     0.000     0.007     1.042    -1.042     0.002     0.178    -0.190    -0.300     0.000     1.039     0.199     0.000     0.000     0.000     0.000     0.000     0.000     0.033     0.000     0.000     0.000     0.047    12.268     0.000     3.640     4.921     1.677 .00000E+00 .00000E+00 0.236E+01 0.439E+04 0.000E+00 0.000E+00 0.000E+00 0.000E+00 0.000E+00 0.119E-04     9.547     0.301     0.000
FRSE    2 000010002    1    0    3.45658E-01    93.800     0.000     0.000     0.000   115.533    88.101    80.284    76.810     0.000     7.684     0.384     2.311     0.000     0.000  1000.008  2001.753     0.000     0.000     0.000    25.289     8.756    34.630    61.588    26.877    29.777    23.977    23.752    16.583     0.000     0.000     0.000     0.000     0.000     0.000     0.000     0.000     0.000     0.000     0.000     0.000     0.004     0.941    -0.974     0.001     0.161    -0.265    -0.294     0.000     0.937     0.169     0.000     0.000     0.000     0.000     0.000     0.000     0.000     0.000     0.000     0.000     0.047     6.904     0.000     5.039     5.000     2.322 .00000E+00 .00000E+00 0.236E+01 0.439E+04 0.000E+00 0.000E+00 0.000E+00 0.000E+00 0.000E+00 0.277E-03     0.585    25.289     0.000
FRSE    3 000010003    1    0    3.20521E-03    93.800     0.000     0.000     0.000   115.533    79.979    53.321    69.473     0.000    87.254     4.363     2.311     0.000     0.000  1020.303  2023.044     0.073     0.073     0.000     0.003   140.701   148.553    75.239    26.877    29.777    23.977    25.650    16.583     0.000     0.000     0.000     0.000     0.000     0.000     0.000     0.000     0.000     0.000     0.000     0.000     0.005     0.893    -0.916     0.001     0.152    -0.159    -0.194     0.000     0.890     0.204     0.000     0.000     0.000     0.000     0.000     0.000     0.020     0.000     0.000     0.000     0.047    16.872     0.000     2.261     3.230     1.042 .00000E+00 .00000E+00 0.239E+01 0.404E+04 0.000E+00 0.000E+00 0.000E+00 0.000E+00 0.000E+00 0.000E+00     7.777     0.003     0.000
FRSE    4 000010004    1    0    3.82082E-03    93.800     0.000     0.000     0.000   115.533    79.903    53.298    69.235     0.000    86.105     4.305     2.311     0.000     0.000  1019.584  2022.730     0.072     0.072     0.000     0.500   138.839   147.082    75.238    26.877    29.777    23.977    25.651    16.583     0.000     0.000     0.000     0.000     0.000     0.000     0.000     0.000     0.000     0.000     0.000     0.000     0.004     0.884    -0.907     0.001     0.151    -0.156    -0.173     0.000     0.881     0.202     0.000     0.000     0.000     0.000     0.000     0.000     0.019     0.000     0.000     0.000     0.047    16.961     0.000     2.246     3.220     1.035 .00000E+00 .00000E+00 0.239E+01 0.404E+04 0.000E+00 0.000E+00 0.000E+00 0.000E+00 0.000E+00 0.213E-03     7.671     0.500     0.000
FRSE    5 000010005    1    0    3.11081E+00    93.800     0.000     0.000     0.000   115.533    84.936    28.600    20.103     0.000     5.420     0.271     2.311     0.000     0.000  1000.000  2001.170     0.000     0.000     0.000    36.255     5.526    42.171    66.413    26.877    29.777    23.977    25.039    16.583     0.000     0.000     0.000     0.000     0.000     0.000     0.000     0.000     0.000     0.000     0.000     0.000     0.005     0.707    -0.834     0.001     0.121    -0.370    -0.454     0.000     0.711     0.165     0.000     0.000     0.000     0.000     0.001     0.000     0.000     0.000     0.000     0.771     0.047     6.435     0.000     5.175     5.000     2.385 .00000E+00 .00000E+00 0.239E+01 0.404E+04 0.000E+00 0.000E+00 0.000E+00 0.000E+00 0.000E+00 0.517E-03     0.390    36.255     0.000
FRSE    6 000020001    2    0    3.58484E-02    93.800     0.000     0.000     0.000   115.382    89.145    97.755    92.863     0.000    26.459     1.323     2.308     0.000     0.000  1000.012  2006.574     0.000     0.000     0.000    26.211    42.104    70.521    61.970    26.877    29.777    23.977    24.547    16.583     0.000     0.000     0.000     0.000     0.000     0.000     0.000     0.000     0.000     0.000     0.000     0.000     0.016     1.404    -1.313     0.002     0.240    -0.378    -0.509     0.000     1.415     0.263     0.000     0.000     0.000     0.000     0.001     0.000     0.007     0.000     0.000     0.000     0.047     1.749     0.000     5.901     5.000     2.719 .00000E+00 .00000E+00 0.236E+01 0.444E+04 0.000E+00 0.000E+00 0.000E+00 0.000E+00 0.000E+00 0.524E-03     2.206    26.211     0.000
FRSE    7 000020002    2    0    3.13544E+00    93.800     0.000     0.000     0.000   115.382    83.233    27.538    17.777     0.000     1.972     0.099     2.308     0.000     0.000   887.091  2000.350     0.000     0.000     0.000    40.346     0.000    40.462    65.920    26.877    29.777    23.977    24.990    16.583     0.000     0.000     0.000     0.000     0.000     0.000     0.000     0.000     0.000     0.000     0.000     0.000     0.003     0.691    -0.816     0.001     0.118    -0.469    -0.499     0.000     0.695     0.236     0.000     0.000     0.000     0.000     0.000     0.000     0.000     0.000     0.000     1.141     0.047     2.779     0.000     5.774     5.000     2.661 .00000E+00 .00000E+00 0.239E+01 0.404E+04 0.000E+00 0.000E+00 0.000E+00 0.000E+00 0.000E+00 0.235E-03     0.116    40.346     0.000
FRSE    8 000030001    3    0    3.20521E-03    93.800     0.000     0.000     0.000   115.535    89.756    88.519   100.535     0.000   107.699     5.385     2.311     0.000     0.000  1036.301  2028.141     0.000     0.000     0.000     0.365   173.079   182.934    63.381    26.877    29.777    23.977    23.965    16.583     0.000     0.000     0.000     0.000     0.000     0.000     0.000     0.000     0.000     0.000     0.000     0.000     0.007     1.037    -1.038     0.002     0.177    -0.188    -0.290     0.000     1.034     0.198     0.000     0.000     0.000     0.000     0.000     0.000     0.032     0.000     0.000     0.000     0.047    12.315     0.000     3.630     4.919     1.673 .00000E+00 .00000E+00 0.236E+01 0.439E+04 0.000E+00 0.000E+00 0.000E+00 0.000E+00 0.000E+00 0.157E-04     9.489     0.365     0.000
FRSE    9 000030002    3    0    3.62690E-01    93.800     0.000     0.000     0.000   115.535    89.673    85.338    91.710     0.000    43.252     2.163     2.311     0.000     0.000  1003.034  2011.093     0.000     0.000     0.000     8.870    69.247    81.852    62.713    26.877    29.777    23.977    23.881    16.583     0.000     0.000     0.000     0.000     0.000     0.000     0.000     0.000     0.000     0.000     0.000     0.000     0.005     0.978    -0.991     0.001     0.167    -0.187    -0.244     0.000     0.973     0.172     0.000     0.000     0.000     0.000     0.000     0.000     0.007     0.000     0.000     0.000     0.047    10.771     0.000     4.102     4.998     1.890 .00000E+00 .00000E+00 0.236E+01 0.439E+04 0.000E+00 0.000E+00 0.000E+00 0.000E+00 0.000E+00 0.264E-03     3.736     8.870     0.000
FRSE   10 000030003    3    0    3.14806E+00    93.800     0.000     0.000     0.000   115.535    85.180    28.704    20.289     0.000     5.811     0.291     2.311     0.000     0.000  1000.000  2001.270     0.000     0.000     0.000    35.826     6.076    42.324    66.460    26.877    29.777    23.977    25.046    16.583     0.000     0.000     0.000     0.000     0.000     0.000     0.000     0.000     0.000     0.000     0.000     0.000     0.005     0.708    -0.835     0.001     0.121    -0.357    -0.445     0.000     0.712     0.159     0.000     0.000     0.000     0.000     0.001     0.000     0.000     0.000     0.000     0.698     0.047     6.907     0.000     5.087     5.000     2.344 .00000E+00 .00000E+00 0.239E+01 0.404E+04 0.000E+00 0.000E+00 0.000E+00 0.000E+00 0.000E+00 0.532E-03     0.422    35.826     0.000
FRSE   11 000040001    4    0    3.18489E+00    93.800     0.000     0.000     0.000   115.427    83.458    27.724    18.234     0.000     2.757     0.138     2.309     0.000     0.000   932.668  2000.531     0.000     0.000     0.000    39.645     0.000    39.817    66.008    26.877    29.777    23.977    24.997    16.583     0.000     0.000     0.000     0.000     0.000     0.000     0.000     0.000     0.000     0.000     0.000     0.000     0.004     0.695    -0.821     0.001     0.119    -0.457    -0.497     0.000     0.700     0.225     0.000     0.000     0.000     0.000     0.000     0.000     0.000     0.000     0.000     1.114     0.047     3.204     0.000     5.713     5.000     2.632 .00000E+00 .00000E+00 0.239E+01 0.404E+04 0.000E+00 0.000E+00 0.000E+00 0.000E+00 0.000E+00 0.314E-03     0.172    39.645     0.000
FRSE   12 000050001    5    0    3.10260E-03    93.800     0.000     0.000     0.000   115.516    89.756    88.556   100.629     0.000   108.474     5.424     2.310     0.000     0.000  1036.877  2028.345     0.000     0.000     0.000     0.288   174.327   184.173    63.389    26.877    29.777    23.977    23.964    16.583     0.000     0.000     0.000     0.000     0.000     0.000     0.000     0.000     0.000     0.000     0.000     0.000     0.007     1.042    -1.043     0.002     0.178    -0.190    -0.302     0.000     1.039     0.199     0.000     0.000     0.000     0.000     0.000     0.000     0.033     0.000     0.000     0.000     0.047    12.262     0.000     3.641     4.922     1.678 .00000E+00 .00000E+00 0.236E+01 0.439E+04 0.000E+00 0.000E+00 0.000E+00 0.000E+00 0.000E+00 0.124E-04     9.558     0.288     0.000
FRSE   13 000050002    5    0    3.26574E-01    93.800     0.000     0.000     0.000   115.516    89.658    85.339    91.692     0.000    43.049     2.152     2.310     0.000     0.000  1002.983  2011.046     0.000     0.000     0.000     8.910    68.919    81.547    62.714    26.877    29.777    23.977    23.880    16.583     0.000     0.000     0.000     0.000     0.000     0.000     0.000     0.000     0.000     0.000     0.000     0.000     0.005     0.979    -0.992     0.001     0.167    -0.188    -0.247     0.000     0.974     0.172     0.000     0.000     0.000     0.000     0.000     0.000     0.007     0.000     0.000     0.000     0.047    10.737     0.000     4.110     4.998     1.894 .00000E+00 .00000E+00 0.236E+01 0.439E+04 0.000E+00 0.000E+00 0.000E+00 0.000E+00 0.000E+00 0.268E-03     3.718     8.910     0.000
FRSE   14 000050003    5    0    3.20520E-03    93.800     0.000     0.000     0.000   115.516    79.912    53.217    69.021     0.000    85.498     4.275     2.310     0.000     0.000  1019.172  2022.567     0.070     0.070     0.000     0.580   137.855   146.120    75.217    26.877    29.777    23.977    25.650    16.583     0.000     0.000     0.000     0.000     0.000     0.000     0.000     0.000     0.000     0.000     0.000     0.000     0.004     0.884    -0.908     0.001     0.151    -0.156    -0.175     0.000     0.881     0.203     0.000     0.000     0.000     0.000     0.000     0.000     0.019     0.000     0.000     0.000     0.047    16.947     0.000     2.250     3.224     1.037 .00000E+00 .00000E+00 0.239E+01 0.404E+04 0.000E+00 0.000E+00 0.000E+00 0.000E+00 0.000E+00 0.160E-03     7.615     0.580     0.000
FRSE   15 000050004    5    0    3.17750E+00    93.800     0.000     0.000     0.000   115.516    87.033    30.165    23.421     0.000    11.491     0.575     2.310     0.000     0.000  1000.000  2002.706     0.000     0.000     0.000    30.901    12.373    44.180    67.107    26.877    29.777    23.977    25.142    16.583     0.000     0.000     0.000     0.000     0.000     0.000     0.000     0.000     0.000     0.000     0.000     0.000     0.005     0.726    -0.848     0.001     0.124    -0.236    -0.323     0.000     0.728     0.141     0.000     0.000     0.000     0.000     0.001     0.000     0.001     0.000     0.000     0.013     0.047    11.748     0.000     4.001     4.999     1.844 .00000E+00 .00000E+00 0.239E+01 0.404E+04 0.000E+00 0.000E+00 0.000E+00 0.000E+00 0.000E+00 0.700E-03     0.906    30.901     0.000
FRSE   16 000060001    6    0    3.10260E-03    93.800     0.000     0.000     0.000   115.476    79.945    53.355    69.527     0.000    87.257     4.363     2.310     0.000     0.000  1020.318  2023.043     0.074     0.074     0.000     0.003   140.705   148.557    75.249    26.877    29.777    23.977    25.650    16.583     0.000     0.000     0.000     0.000     0.000     0.000     0.000     0.000     0.000     0.000     0.000     0.000     0.005     0.894    -0.916     0.001     0.153    -0.159    -0.195     0.000     0.891     0.204     0.000     0.000     0.000     0.000     0.000     0.000     0.020     0.000     0.000     0.000     0.047    16.866     0.000     2.262     3.230     1.042 .00000E+00 .00000E+00 0.239E+01 0.404E+04 0.000E+00 0.000E+00 0.000E+00 0.000E+00 0.000E+00 0.000E+00     7.776     0.003     0.000
FRSE   17 000060002    6    0    3.51300E-03    93.800     0.000     0.000     0.000   115.476    79.858    53.248    69.012     0.000    85.196     4.260     2.310     0.000     0.000  1018.973  2022.484     0.070     0.070     0.000     0.680   137.366   145.703    75.228    26.877    29.777    23.977    25.651    16.583     0.000     0.000     0.000     0.000     0.000     0.000     0.000     0.000     0.000     0.000     0.000     0.000     0.004     0.881    -0.905     0.001     0.151    -0.155    -0.169     0.000     0.878     0.202     0.000     0.000     0.000     0.000     0.000     0.000     0.019     0.000     0.000     0.000     0.047    16.976     0.000     2.245     3.221     1.034 .00000E+00 .00000E+00 0.239E+01 0.404E+04 0.000E+00 0.000E+00 0.000E+00 0.000E+00 0.000E+00 0.187E-03     7.587     0.680     0.000
FRSE   18 000060003    6    0    3.17863E+00    93.800     0.000     0.000     0.000   115.476    86.430    29.402    21.559     0.000     8.435     0.422     2.310     0.000     0.000  1000.000  2001.929     0.000     0.000     0.000    33.344     7.117    41.105    66.773    26.877    29.777    23.977    25.092    16.583     0.000     0.000     0.000     0.000     0.000     0.000     0.000     0.000     0.000     0.000     0.000     0.000     0.005     0.717    -0.842     0.001     0.122    -0.285    -0.384     0.000     0.720     0.138     0.000     0.000     0.000     0.000     0.001     0.000     0.001     0.000     0.000     0.199     0.047     9.576     0.000     4.529     5.000     2.087 .00000E+00 .00000E+00 0.239E+01 0.404E+04 0.000E+00 0.000E+00 0.000E+00 0.000E+00 0.000E+00 0.631E-03     0.643    33.344     0.000
FRSE   19 000070001    7    0    3.98498E-02    93.800     0.000     0.000     0.000   115.488    89.376    83.987    87.615     0.000    25.792     1.290     2.310     0.000     0.000  1000.000  2006.518     0.000     0.000     0.000    13.245    39.631    55.067    62.423    26.877    29.777    23.977    23.834    16.583     0.000     0.000     0.000     0.000     0.000     0.000     0.000     0.000     0.000     0.000     0.000     0.000     0.005     0.968    -0.987     0.001     0.165    -0.208    -0.269     0.000     0.964     0.163     0.000     0.000     0.000     0.000     0.000     0.000     0.003     0.000     0.000     0.000     0.047     9.442     0.000     4.451     5.000     2.051 .00000E+00 .00000E+00 0.236E+01 0.439E+04 0.000E+00 0.000E+00 0.000E+00 0.000E+00 0.000E+00 0.338E-03     2.191    13.245     0.000
FRSE   20 000070002    7    0    3.10259E-03    93.800     0.000     0.000     0.000   115.488    79.953    53.347    69.514     0.000    87.257     4.363     2.310     0.000     0.000  1020.309  2023.044     0.073     0.074     0.000     0.003   140.704   148.556    75.247    26.877    29.777    23.977    25.650    16.583     0.000     0.000     0.000     0.000     0.000     0.000     0.000     0.000     0.000     0.000     0.000     0.000     0.005     0.894    -0.916     0.001     0.153    -0.159    -0.195     0.000     0.891     0.204     0.000     0.000     0.000     0.000     0.000     0.000     0.020     0.000     0.000     0.000     0.047    16.867     0.000     2.262     3.230     1.042 .00000E+00 .00000E+00 0.239E+01 0.404E+04 0.000E+00 0.000E+00 0.000E+00 0.000E+00 0.000E+00 0.000E+00     7.776     0.003     0.000
FRSE   21 000070003    7    0    3.10259E-03    93.800     0.000     0.000     0.000   115.488    79.891    53.205    68.956     0.000    85.196     4.260     2.310     0.000     0.000  1018.971  2022.485     0.070     0.070     0.000     0.679   137.365   145.702    75.215    26.877    29.777    23.977    25.650    16.583     0.000     0.000     0.000     0.000     0.000     0.000     0.000     0.000     0.000     0.000     0.000     0.000     0.004     0.884    -0.907     0.001     0.151    -0.156    -0.174     0.000     0.881     0.202     0.000     0.000     0.000     0.000     0.000     0.000     0.019     0.000     0.000     0.000     0.047    16.951     0.000     2.250     3.225     1.037 .00000E+00 .00000E+00 0.239E+01 0.404E+04 0.000E+00 0.000E+00 0.000E+00 0.000E+00 0.000E+00 0.188E-03     7.587     0.679     0.000
FRSE   22 000070004    7    0    3.18951E+00    93.800     0.000     0.000     0.000   115.488    85.994    29.131    21.038     0.000     7.364     0.368     2.310     0.000     0.000  1000.010  2001.654     0.000     0.000     0.000    34.289     8.219    43.060    66.652    26.877    29.777    23.977    25.073    16.583     0.000     0.000     0.000     0.000     0.000     0.000     0.000     0.000     0.000     0.000     0.000     0.000     0.005     0.713    -0.839     0.001     0.122    -0.311    -0.409     0.000     0.716     0.142     0.000     0.000     0.000     0.000     0.001     0.000     0.001     0.000     0.000     0.385     0.047     8.595     0.000     4.747     5.000     2.188 .00000E+00 .00000E+00 0.239E+01 0.404E+04 0.000E+00 0.000E+00 0.000E+00 0.000E+00 0.000E+00 0.592E-03     0.552    34.289     0.000
FRSE   23 000080001    8    0    3.58278E-01    93.800     0.000     0.000     0.000   115.416    83.910    28.103    19.050     0.000     3.666     0.183     2.308     0.000     0.000   991.451  2000.739     0.000     0.000     0.000    38.383     0.000    38.628    66.184    26.877    29.777    23.977    25.012    16.583     0.000     0.000     0.000     0.000     0.000     0.000     0.000     0.000     0.000     0.000     0.000     0.000     0.005     0.701    -0.827     0.001     0.120    -0.430    -0.487     0.000     0.706     0.204     0.000     0.000     0.000     0.000     0.000     0.000     0.000     0.000     0.000     1.015     0.047     4.234     0.000     5.550     5.000     2.557 .00000E+00 .00000E+00 0.239E+01 0.404E+04 0.000E+00 0.000E+00 0.000E+00 0.000E+00 0.000E+00 0.415E-03     0.245    38.383     0.000
FRSE   24 000090001    9    0    3.41041E-03    93.800     0.000     0.000     0.000   115.371    79.861    53.436    69.627     0.000    87.152     4.358     2.307     0.000     0.000  1020.257  2023.013     0.075     0.075     0.000     0.050   140.533   148.424    75.274    26.877    29.777    23.977    25.651    16.583     0.000     0.000     0.000     0.000     0.000     0.000     0.000     0.000     0.000     0.000     0.000     0.000     0.005     0.893    -0.915     0.001     0.152    -0.158    -0.191     0.000     0.890     0.204     0.000     0.000     0.000     0.000     0.000     0.000     0.020     0.000     0.000     0.000     0.047    16.879     0.000     2.260     3.228     1.041 .00000E+00 .00000E+00 0.239E+01 0.404E+04 0.000E+00 0.000E+00 0.000E+00 0.000E+00 0.000E+00 0.117E-04     7.766     0.050     0.000
[...]
FRSE   13 000050002    5    0  4.0.26574E-01  3445.525     0.000     0.000     0.000  1685.235  1088.368   134.930   142.204   678.779   672.363    33.618    33.705     0.000     0.000  1022.116  2006.882   508.497   508.497     0.000  1169.663   605.608  2318.107    72.045    26.585    28.867    24.303    24.373    17.431     8.824    17.520     0.000     0.000     0.000     0.000     0.000     0.000     0.000     0.000     0.000     0.000     0.867    13.793   -12.115     0.225     2.353    -1.412    -0.444     0.000     5.103     1.328    47.996     5.861     4.308     0.011     1.732     4.000     0.060     0.039     0.000     0.000     0.074    20.308     0.000     5.704     4.919     3.993 .00000E+00 .00000E+00 0.247E-01 0.000E+00 0.000E+00 0.000E+00 0.000E+00 0.000E+00 0.000E+00 0.173E+01    34.339  1169.663     0.000
FRSE   14 000050003    5    0  4.0.20520E-03  3445.525     0.000     0.000     0.000  1685.235   996.657    86.113    90.440  1408.926  1396.456    69.823    33.705     0.000     0.000  1047.995  2015.011  1009.126  1009.118     0.000    31.472  1295.698  2407.488    83.474    26.585    28.867    24.303    25.752    17.431     0.868     1.673     0.000     0.000     0.000     0.000     0.000     0.000     0.000     0.000     0.000     0.000     0.529    12.674   -11.140     0.144     2.162    -1.282    -1.017     0.000     3.038     0.825    11.228     1.370     0.968     0.019     0.035    10.041     0.258     0.196     0.000     0.000     0.074    34.655     0.000     3.551     3.432     2.485 .00000E+00 .00000E+00 0.953E-01 0.000E+00 0.000E+00 0.000E+00 0.000E+00 0.000E+00 0.000E+00 0.353E-01    71.200    31.472     0.000
FRSE   15 000050004    5    0  4.0.17750E+00  3445.525     0.000     0.000     0.000  1685.235   964.052    81.987    90.367   143.683   142.016     7.101    33.705     0.000     0.000  1004.139  2001.299   971.696   971.696     0.000  1364.935   100.912  2444.854    82.412    26.585    28.867    24.303    25.655    17.431    14.365    13.596     0.000     0.000     0.000     0.000     0.000     0.000     0.000     0.000     0.000     0.000     0.844    11.894   -10.354     0.223     2.029     0.375     0.723     0.000     4.977     1.316    40.104     4.902     3.841     0.026     1.680     2.280     0.008     0.042     0.000     2.548     0.074    20.708     0.000     5.648     4.949     3.954 .00000E+00 .00000E+00 0.896E-01 0.000E+00 0.000E+00 0.000E+00 0.000E+00 0.000E+00 0.000E+00 0.168E+01     7.309  1364.935     0.000
FRSE   16 000060001    6    0  4.0.10260E-03  3445.525     0.000     0.000     0.000  1685.296   997.062    86.142    90.440  1439.791  1427.063    71.353    33.706     0.000     0.000  1049.176  2015.356  1009.514  1007.673     0.000     0.104  1324.959  2405.492    83.481    26.585    28.867    24.303    25.752    17.431     0.030     0.346     0.000     0.000     0.000     0.000     0.000     0.000     0.000     0.000     0.000     0.000     0.536    12.820   -11.266     0.145     2.187    -1.396    -1.184     0.000     3.068     0.831     0.702     0.086     0.059     0.021     0.000    10.272     0.269     0.247     0.000     0.000     0.074    34.451     0.000     3.580     3.444     2.506 .00000E+00 .00000E+00 0.150E+00 0.000E+00 0.000E+00 0.000E+00 0.000E+00 0.000E+00 0.000E+00 0.119E-03    72.757     0.104     0.000
FRSE   17 000060002    6    0  4.0.51300E-03  3445.525     0.000     0.000     0.000  1685.296   996.546    86.112    90.438  1403.622  1391.191    69.560    33.706     0.000     0.000  1047.822  2014.951  1009.097  1009.091     0.000    36.869  1290.654  2407.545    83.474    26.585    28.867    24.303    25.753    17.431     1.220     1.833     0.000     0.000     0.000     0.000     0.000     0.000     0.000     0.000     0.000     0.000     0.526    12.622   -11.095     0.143     2.153    -1.249    -0.963     0.000     3.027     0.822    14.648     1.787     1.275     0.018     0.041     9.980     0.255     0.178     0.000     0.000     0.074    34.736     0.000     3.539     3.426     2.477 .00000E+00 .00000E+00 0.949E-01 0.000E+00 0.000E+00 0.000E+00 0.000E+00 0.000E+00 0.000E+00 0.411E-01    70.932    36.869     0.000
FRSE   18 000060003    6    0  4.0.17863E+00  3445.525     0.000     0.000     0.000  1685.296   955.664    80.945    90.358    97.462    96.268     4.813    33.706     0.000     0.000   997.420  2000.829   963.083   963.083     0.000  1428.017    58.756  2454.826    82.179    26.585    28.867    24.303    25.636    17.431    16.958    12.022     0.000     0.000     0.000     0.000     0.000     0.000     0.000     0.000     0.000     0.000     0.946    11.837   -10.280     0.244     2.019     0.366     0.722     0.000     5.595     1.446    40.748     4.982     3.909     0.029     1.715     1.586     0.004     0.038     0.000     2.867     0.074    16.581     0.000     6.208     4.995     4.346 .00000E+00 .00000E+00 0.886E-01 0.000E+00 0.000E+00 0.000E+00 0.000E+00 0.000E+00 0.000E+00 0.171E+01     4.969  1428.017     0.000
FRSE   19 000070001    7    0  4.0.98498E-02  3445.525     0.000     0.000     0.000  1685.278  1082.884   134.469   142.188   391.875   388.035    19.402    33.706     0.000     0.000  1014.389  2003.887   506.249   506.249     0.000  1464.075   334.638  2324.808    71.962    26.585    28.867    24.303    24.355    17.431    11.035    30.362     0.000     0.000     0.000     0.000     0.000     0.000     0.000     0.000     0.000     0.000     0.928    13.724   -12.049     0.238     2.341    -1.009    -0.057     0.000     5.484     1.411    49.695     6.070     4.502     0.012     2.146     2.338     0.021     0.034     0.000     0.000     0.074    17.762     0.000     6.061     4.979     4.243 .00000E+00 .00000E+00 0.244E-01 0.000E+00 0.000E+00 0.000E+00 0.000E+00 0.000E+00 0.000E+00 0.215E+01    19.845  1464.075     0.000
FRSE   20 000070002    7    0  4.0.10259E-03  3445.525     0.000     0.000     0.000  1685.278   997.067    86.142    90.441  1439.787  1427.060    71.353    33.706     0.000     0.000  1049.168  2015.355  1009.513  1007.672     0.000     0.104  1324.957  2405.489    83.481    26.585    28.867    24.303    25.752    17.431     0.030     0.346     0.000     0.000     0.000     0.000     0.000     0.000     0.000     0.000     0.000     0.000     0.536    12.820   -11.266     0.145     2.187    -1.396    -1.184     0.000     3.068     0.831     0.702     0.086     0.059     0.021     0.000    10.272     0.269     0.247     0.000     0.000     0.074    34.451     0.000     3.579     3.444     2.506 .00000E+00 .00000E+00 0.150E+00 0.000E+00 0.000E+00 0.000E+00 0.000E+00 0.000E+00 0.000E+00 0.119E-03    72.757     0.104     0.000
FRSE   21 000070003    7    0  4.0.10259E-03  3445.525     0.000     0.000     0.000  1685.278   996.585    86.110    90.439  1403.594  1391.164    69.558    33.706     0.000     0.000  1047.813  2014.951  1009.085  1009.079     0.000    36.868  1290.632  2407.510    83.474    26.585    28.867    24.303    25.752    17.431     0.956     1.822     0.000     0.000     0.000     0.000     0.000     0.000     0.000     0.000     0.000     0.000     0.529    12.661   -11.129     0.143     2.160    -1.269    -1.000     0.000     3.036     0.824    12.051     1.470     1.042     0.019     0.041    10.011     0.256     0.192     0.000     0.000     0.074    34.667     0.000     3.549     3.432     2.484 .00000E+00 .00000E+00 0.950E-01 0.000E+00 0.000E+00 0.000E+00 0.000E+00 0.000E+00 0.000E+00 0.413E-01    70.930    36.868     0.000
FRSE   22 000070004    7    0  4.0.18951E+00  3445.525     0.000     0.000     0.000  1685.278   951.716    80.386    90.356    81.875    80.859     4.043    33.706     0.000     0.000   994.573  2000.674   958.296   958.296     0.000  1452.285    44.602  2459.363    82.054    26.585    28.867    24.303    25.628    17.431    18.238    20.400     0.000     0.000     0.000     0.000     0.000     0.000     0.000     0.000     0.000     0.000     0.990    11.811   -10.249     0.253     2.015     0.359     0.719     0.000     5.864     1.498    41.007     5.014     3.939     0.030     1.718     1.325     0.003     0.037     0.000     2.994     0.074    14.896     0.000     6.430     4.999     4.501 .00000E+00 .00000E+00 0.885E-01 0.000E+00 0.000E+00 0.000E+00 0.000E+00 0.000E+00 0.000E+00 0.172E+01     4.180  1452.285     0.000
FRSE   23 000080001    8    0  4.0.58278E-01  3445.525     0.000     0.000     0.000  1685.388   930.697    77.079    90.337    31.305    31.038     1.552    33.708     0.000     0.000   964.235  2000.202   926.069   926.069     0.000  1555.777     0.000  2483.460    81.303    26.585    28.867    24.303    25.590    17.431    21.392    20.863     0.000     0.000     0.000     0.000     0.000     0.000     0.000     0.000     0.000     0.000     1.179    11.700   -10.107     0.283     1.996     0.331     0.700     0.000     7.003     1.681    41.370     5.060     3.987     0.036     1.675     0.426     0.000     0.034     0.000     3.473     0.074     8.678     0.000     7.227     5.000     5.059 .00000E+00 .00000E+00 0.743E-01 0.000E+00 0.000E+00 0.000E+00 0.000E+00 0.000E+00 0.000E+00 0.167E+01     1.614  1555.777     0.000
FRSE   24 000090001    9    0  4.0.41041E-03  3445.525     0.000     0.000     0.000  1685.457   996.981    86.144    90.435  1437.900  1425.176    71.259    33.709     0.000     0.000  1049.171  2015.338  1009.501  1009.158     0.000     2.074  1323.133  2407.024    83.481    26.585    28.867    24.303    25.752    17.431     0.154     0.538     0.000     0.000     0.000     0.000     0.000     0.000     0.000     0.000     0.000     0.000     0.534    12.793   -11.243     0.145     2.182    -1.379    -1.156     0.000     3.062     0.830     2.856     0.348     0.241     0.020     0.002    10.244     0.268     0.237     0.000     0.000     0.074    34.493     0.000     3.573     3.441     2.501 .00000E+00 .00000E+00 0.986E-01 0.000E+00 0.000E+00 0.000E+00 0.000E+00 0.000E+00 0.000E+00 0.234E-02    72.659     2.074     0.000
FRSE   25 000090002    9    0  4.0.61561E-03  3445.525     0.000     0.000     0.000  1685.457   996.696    86.129    90.434  1419.696  1407.120    70.356    33.709     0.000     0.000  1048.487  2015.133  1009.285  1009.257     0.000    20.597  1305.870  2407.464    83.478    26.585    28.867    24.303    25.753    17.431     0.901     1.556     0.000     0.000     0.000     0.000     0.000     0.000     0.000     0.000     0.000     0.000     0.528    12.664   -11.132     0.143     2.160    -1.290    -1.020     0.000     3.034     0.824    11.903     1.452     1.028     0.019     0.023    10.074     0.260     0.193     0.000     0.000     0.074    34.687     0.000     3.546     3.428     2.482 .00000E+00 .00000E+00 0.946E-01 0.000E+00 0.000E+00 0.000E+00 0.000E+00 0.000E+00 0.000E+00 0.230E-01    71.740    20.597     0.000
FRSE   26 000090003    9    0  4.0.38732E+00  3445.525     0.000     0.000     0.000  1685.457   917.353    74.508    90.325    14.750    14.909     0.745    33.709     0.000     0.000   821.493  2000.090   894.660   894.660     0.000  1616.917     0.000  2512.347    80.705    26.585    28.867    24.303    25.567    17.431    31.950    26.281     0.000     0.000     0.000     0.000     0.000     0.000     0.000     0.000     0.000     0.000     1.240    11.581    -9.982     0.289     1.976     0.333     0.707     0.000     7.441     1.734    42.571     5.208     4.139     0.037     1.609     0.159     0.000     0.027     0.000     3.673     0.074     6.763     0.000     7.455     5.000     5.218 .00000E+00 .00000E+00 0.578E-01 0.000E+00 0.000E+00 0.000E+00 0.000E+00 0.000E+00 0.000E+00 0.161E+01     0.771  1616.917     0.000
SWCH   27 000100001   10    0  4.0.10260E-03  3445.525     0.000     0.000     0.000  1685.568  1069.485   147.267   159.850  1749.224  1733.105    86.655    33.711     0.000     0.000  1095.129  2019.591   619.865   619.823     0.000     7.719  1613.015  2328.693    74.814    26.585    28.867    24.303    24.189    17.431     0.000     0.010     0.000     0.000   133.999     0.000     0.000     0.000     0.000     0.000     0.000     0.000    35.543    20.742   -12.093     8.371     3.559   -33.926   -29.462     0.000   154.947    43.324     0.000     0.000     0.000     0.244     0.064    28.017     1.110     0.209     0.000     0.000     0.888    72.044     0.000    39.317     5.571    25.572 .00000E+00 .00000E+00 0.440E-01 0.000E+00 0.000E+00 0.000E+00 0.000E+00 0.000E+00 0.000E+00 0.635E-01    88.136     7.719     0.000
SWCH   28 000100002   10    0  4.0.10260E-03  3445.525     0.000     0.000     0.000  1685.568  1065.494   142.811   159.613   773.137   764.796    38.240    33.711     0.000     0.000  1045.557  2008.432   601.854   601.854     0.000  1004.191   693.634  2338.657    74.061    26.585    28.867    24.303    24.158    17.431     0.017     0.237     0.000     0.000   139.494     0.000     0.000     0.000     0.000     0.000     0.000     0.000    34.685    20.541   -11.957     8.268     3.525   -32.819   -28.498     0.000   151.636    42.855     0.221     0.028     0.014     0.811     8.125    10.352     0.207     0.211     0.000     0.000     0.888    72.810     0.000    39.117     5.516    25.453 .00000E+00 .00000E+00 0.323E-01 0.000E+00 0.000E+00 0.000E+00 0.000E+00 0.000E+00 0.000E+00 0.813E+01    38.979  1004.191     0.000
FRSE   29 000100003   10    0  4.0.20520E-03  3445.525     0.000     0.000     0.000  1685.568  1036.882   153.186   159.065  1893.525  1876.707    93.835    33.711     0.000     0.000  1065.635  2020.044   515.717   515.039     0.000     0.090  1755.550  2366.307    72.374    26.585    28.867    24.303    24.975    17.431     0.007     0.150     0.000     0.000     0.000     0.000     0.000     0.000     0.000     0.000     0.000     0.000     0.898    19.255   -16.681     0.223     3.287    -0.689    -0.561     0.000     5.334     1.327     0.174     0.021     0.013     0.008     0.000    14.667     0.511     0.146     0.000     0.000     0.074    19.935     0.000     5.712     4.689     3.998 .00000E+00 .00000E+00 0.808E-01 0.000E+00 0.000E+00 0.000E+00 0.000E+00 0.000E+00 0.000E+00 0.896E-04    95.628     0.090     0.000
FRSE   30 000100004   10    0  4.0.20520E-03  3445.525     0.000     0.000     0.000  1685.568  1036.652   153.138   159.061  1863.119  1846.557    92.328    33.711     0.000     0.000  1064.435  2019.720   515.320   515.317     0.000    30.835  1726.726  2366.973    72.366    26.585    28.867    24.303    24.975    17.431     0.214     0.942     0.000     0.000     0.000     0.000     0.000     0.000     0.000     0.000     0.000     0.000     0.899    19.209   -16.643     0.223     3.279    -0.645    -0.508     0.000     5.343     1.329     3.164     0.386     0.246     0.008     0.030    14.517     0.499     0.137     0.000     0.000     0.074    19.874     0.000     5.721     4.696     4.005 .00000E+00 .00000E+00 0.255E-01 0.000E+00 0.000E+00 0.000E+00 0.000E+00 0.000E+00 0.000E+00 0.304E-01    94.094    30.835     0.000
FRSE   31 000100005   10    0  4.0.87212E-02  3445.525     0.000     0.000     0.000  1685.568  1025.175   152.032   158.816   920.001   911.279    45.564    33.711     0.000     0.000  1032.527  2009.523   509.360   509.360     0.000   989.689   830.811  2376.376    72.166    26.585    28.867    24.303    24.938    17.431     2.481     5.191     0.000     0.000     0.000     0.000     0.000     0.000     0.000     0.000     0.000     0.000     1.092    18.855   -16.313     0.260     3.219     0.261     0.394     0.000     6.529     1.559    21.628     2.641     1.873     0.009     1.042     9.885     0.190     0.077     0.000     0.000     0.074    12.964     0.000     6.706     4.975     4.695 .00000E+00 .00000E+00 0.229E-01 0.000E+00 0.000E+00 0.000E+00 0.000E+00 0.000E+00 0.000E+00 0.104E+01    46.516   989.689     0.000
FRSE   32 000100006   10    0  4.0.16827E+00  3445.525     0.000     0.000     0.000  1685.568   920.214    75.106    90.323    17.235    17.316     0.866    33.711     0.000     0.000   843.731  2000.100   901.839   901.839     0.000  1604.423     0.000  2507.160    80.842    26.585    28.867    24.303    25.572    17.431    27.890    21.477     0.000     0.000     0.000     0.000     0.000     0.000     0.000     0.000     0.000     0.000     1.235    11.613   -10.011     0.289     1.981     0.331     0.705     0.000     7.383     1.727    42.192     5.162     4.090     0.037     1.623     0.197     0.000     0.029     0.000     3.631     0.074     7.003     0.000     7.428     5.000     5.200 .00000E+00 .00000E+00 0.594E-01 0.000E+00 0.000E+00 0.000E+00 0.000E+00 0.000E+00 0.000E+00 0.162E+01     0.897  1604.423     0.000
SWCH   33 000110001   11    0  4.0.10260E-03  3445.525     0.000     0.000     0.000  1685.575  1068.791   146.973   159.728  1639.663  1624.319    81.216    33.711     0.000     0.000  1087.084  2018.370   617.708   617.708     0.000   119.445  1509.901  2329.657    74.766    26.585    28.867    24.303    24.187    17.431     0.003     0.097     0.000     0.000   134.752     0.000     0.000     0.000     0.000     0.000     0.000     0.000    35.560    20.722   -12.070     8.381     3.556   -33.897   -29.438     0.000   155.016    43.386     0.037     0.005     0.002     0.247     0.980    25.837     0.971     0.208     0.000     0.000     0.888    72.190     0.000    39.334     5.587    25.581 .00000E+00 .00000E+00 0.327E-01 0.000E+00 0.000E+00 0.000E+00 0.000E+00 0.000E+00 0.000E+00 0.980E+00    82.602   119.445     0.000
FRSE   34 000110002   11    0  4.0.43092E-02  3445.525     0.000     0.000     0.000  1685.575  1006.913   150.313   158.777   376.635   372.705    18.635    33.711     0.000     0.000  1014.599  2003.680   501.184   501.184     0.000  1559.521   320.229  2400.027    71.859    26.585    28.867    24.303    24.894    17.431     2.419     7.153     0.000     0.000     0.000     0.000     0.000     0.000     0.000     0.000     0.000     0.000     1.498    18.807   -16.166     0.309     3.211     0.688     0.759     0.000     8.925     1.851    20.654     2.521     1.821     0.014     1.710     5.651     0.051     0.077     0.000     0.000     0.074     3.943     0.000     7.969     5.000     5.578 .00000E+00 .00000E+00 0.228E-01 0.000E+00 0.000E+00 0.000E+00 0.000E+00 0.000E+00 0.000E+00 0.171E+01    19.094  1559.521     0.000
FRSE   35 000110003   11    0  4.0.10465E-01  3445.525     0.000     0.000     0.000  1685.575   917.166    74.428    90.321    11.824    11.967     0.598    33.711     0.000     0.000   788.196  2000.068   893.688   893.688     0.000  1621.004     0.000  2515.310    80.687    26.585    28.867    24.303    25.567    17.431    35.994    45.540     0.000     0.000     0.000     0.000     0.000     0.000     0.000     0.000     0.000     0.000     1.232    11.568    -9.973     0.287     1.974     0.337     0.711     0.000     7.418     1.731    42.865     5.245     4.177     0.037     1.622     0.122     0.000     0.026     0.000     3.665     0.074     6.847     0.000     7.444     5.000     5.211 .00000E+00 .00000E+00 0.564E-01 0.000E+00 0.000E+00 0.341E+04 0.121E+06 0.000E+00 0.000E+00 0.162E+01     0.618  1621.004     0.000
