1
    SWAT Dec 23 2016    VER 2016/Rev 664                                                                 0/ 0/   0      0: 0: 0

    General Input/Output section (file.cio):                                        
    2/11/2020 16:50:08 QSWAT Workflow v1.5.2                                        
                                                                                    
         Number of years in run:   12
         Area of watershed:        0.536 km2
         Random number generator cycles: 0, use default numbers

         Initial random number seed: wet/dry day prob        748932582
         Initial random number seed: radiation              1948832765
         Initial random number seed: precipitation           857034417
         Initial random number seed: 0.5 hr rainfall          67377721
         Initial random number seed: wind speed              366304404
         Initial random number seed: irrigation             1094585182
         Initial random number seed: relative humidity      1767585417
         Initial random number seed: max temperature         608439319
         Initial random number seed: min temperature         592757081

         Precipitation data used in run:
          Multiple gages read for watershed
             Daily rainfall data used

         Temperature data used in run:
          Multiple gages read for watershed

         PET method used: Penman-Monteith

         Rainfall/Runoff/Routing Option:
          Daily rainfall data
          Runoff estimated with curve number method
          Daily stream routing
           Variable Storage routing method
           Channel dimensions remain constant
           Subbasin algae/CBOD loadings not modeled
           In-stream nutrient transformations modeled using QUAL2E equations

         Subbasin Input Summary:
          Sub Latitude  Elev(m) #HRUs Ponds Elevbnds Wetlnd
            1   -14.29   187.69     1                   
            2   -14.29   164.96     2                   
            3   -14.29   205.11     1                   
            4   -14.29   190.75     2                   
            5   -14.29    97.87     6                   
            6   -14.29    87.76     4                   
            7   -14.29   123.76     2                   
            8   -14.29    92.24     4                   
            9   -14.29    51.78     3                   
           10   -14.29    31.92     4                   
           11   -14.29    31.37    11                   

         HRU Input Summary Table 1:
          Sub   HRU   Area(ha) Slope SlpLgth(m) Ovrlnd_N CondII_CN TimeConc(hr) ESCO EPCO
            1      1       7.26 0.473       9.15    0.100     70.00        0.092 0.95 1.00
            2      2       8.42 0.450       9.15    0.100     70.00        0.093 0.95 1.00
            2      3       0.05 0.534       9.15    0.100     77.00        0.064 0.95 1.00
            3      4       4.25 0.411       9.15    0.100     70.00        0.093 0.95 1.00
            4      5       6.42 0.471       9.15    0.100     70.00        0.089 0.95 1.00
            4      6       0.39 0.289       9.15    0.100     77.00        0.078 0.95 1.00
            5      7       0.48 0.229      15.24    0.100     55.00        0.116 0.95 1.00
            5      8       3.91 0.497       9.15    0.100     70.00        0.091 0.95 1.00
            5      9       0.04 0.338       9.15    0.100     66.00        0.073 0.95 1.00
            5     10       0.01 0.350       9.15    0.100     77.00        0.072 0.95 1.00
            5     11       0.01 0.134      24.39    0.100     77.00        0.174 0.95 1.00
            5     12       0.01 0.103      60.98    0.100     77.00        0.325 0.95 1.00
            6     13       0.85 0.212      15.24    0.100     55.00        0.119 0.95 1.00
            6     14       7.65 0.319       9.15    0.100     70.00        0.110 0.95 1.00
            6     15       0.01 0.092      60.98    0.100     70.00        0.337 0.95 1.00
            6     16       0.01 0.123      24.39    0.100     70.00        0.178 0.95 1.00
            7     17       4.25 0.372       9.15    0.100     70.00        0.095 0.95 1.00
            7     18       0.14 0.325       9.15    0.100     77.00        0.075 0.95 1.00
            8     19       0.01 0.029      91.46    0.100     70.00        0.607 0.95 1.00
            8     20       3.39 0.404       9.15    0.100     70.00        0.089 0.95 1.00
            8     21       0.05 0.261       9.15    0.140     91.00        0.097 0.95 1.00
            8     22       0.02 0.379       9.15    0.100     77.00        0.071 0.95 1.00
            9     23       1.07 0.190      18.29    0.100     55.00        0.145 0.95 1.00
            9     24       1.08 0.372       9.15    0.100     70.00        0.084 0.95 1.00
            9     25       0.02 0.484       9.15    0.100     77.00        0.066 0.95 1.00
           10     26       0.70 0.181      18.29    0.100     55.00        0.148 0.95 1.00
           10     27       0.25 0.479       9.15    0.100     70.00        0.072 0.95 1.00
           10     28       0.08 0.120      60.98    0.100     70.00        0.313 0.95 1.00
           10     29       0.05 0.118      60.98    0.100     70.00        0.314 0.95 1.00
           11     30       0.09 0.245      15.24    0.100     59.00        0.110 0.95 1.00
           11     31       0.02 0.021      91.46    0.100     55.00        0.669 0.95 1.00
           11     32       0.73 0.195      18.29    0.100     55.00        0.137 0.95 1.00
           11     33       1.18 0.280       9.15    0.100     70.00        0.087 0.95 1.00
           11     34       0.01 0.024      91.46    0.100     70.00        0.642 0.95 1.00
           11     35       0.07 0.076      60.98    0.100     70.00        0.357 0.95 1.00
           11     36       0.26 0.216      15.24    0.100     66.00        0.116 0.95 1.00
           11     37       0.15 0.280       9.15    0.100     77.00        0.079 0.95 1.00
           11     38       0.02 0.018     121.95    0.100     77.00        0.832 0.95 1.00
           11     39       0.12 0.100      60.98    0.100     77.00        0.330 0.95 1.00
           11     40       0.01 0.330       9.15    0.100     77.00        0.074 0.95 1.00

         HRU CN Input Summary Table:
          Sub   HRU   Area(ha)  LULC      Soil    CN1    CN2    CN3  Wilting Point (mm H2O)  Field Capacity (mm H2O)  Saturation (mm H2O)
            1      1       7.26  FRSE  FAGASA     51.2   70.0   85.7                   132.2                     97.2                365.5
            2      2       8.42  FRSE  FAGASA     51.2   70.0   85.7                   132.2                     97.2                365.5
            2      3       0.05  FRSD  FAGASA     59.3   77.0   89.9                   132.2                     97.2                365.5
            3      4       4.25  FRSE  FAGASA     51.2   70.0   85.7                   132.2                     97.2                365.5
            4      5       6.42  FRSE  FAGASA     51.2   70.0   85.7                   132.2                     97.2                365.5
            4      6       0.39  FRSD  FAGASA     59.3   77.0   89.9                   132.2                     97.2                365.5
            5      7       0.48  FRSE  AUA        35.3   55.0   74.5                   211.7                    165.8                763.4
            5      8       3.91  FRSE  FAGASA     51.2   70.0   85.7                   132.2                     97.2                365.5
            5      9       0.04  FRSD  AUA        46.8   66.0   83.0                   211.7                    165.8                763.4
            5     10       0.01  FRSD  FAGASA     59.3   77.0   89.9                   132.2                     97.2                365.5
            5     11       0.01  FRSD  AUA        59.3   77.0   89.9                   211.7                    165.8                763.4
            5     12       0.01  FRSD  AUA        59.3   77.0   89.9                   211.7                    165.8                763.4
            6     13       0.85  FRSE  AUA        35.3   55.0   74.5                   211.7                    165.8                763.4
            6     14       7.65  FRSE  FAGASA     51.2   70.0   85.7                   132.2                     97.2                365.5
            6     15       0.01  FRSE  AUA        51.2   70.0   85.7                   211.7                    165.8                763.4
            6     16       0.01  FRSE  AUA        51.2   70.0   85.7                   211.7                    165.8                763.4
            7     17       4.25  FRSE  FAGASA     51.2   70.0   85.7                   132.2                     97.2                365.5
            7     18       0.14  FRSD  FAGASA     59.3   77.0   89.9                   132.2                     97.2                365.5
            8     19       0.01  FRSE  FAGASA     51.2   70.0   85.7                   132.2                     97.2                365.5
            8     20       3.39  FRSE  FAGASA     51.2   70.0   85.7                   132.2                     97.2                365.5
            8     21       0.05  BARR  FAGASA     79.8   91.0   96.7                   132.2                     97.2                365.5
            8     22       0.02  FRSD  FAGASA     59.3   77.0   89.9                   132.2                     97.2                365.5
            9     23       1.07  FRSE  AUA        35.3   55.0   74.5                   211.7                    165.8                763.4
            9     24       1.08  FRSE  FAGASA     51.2   70.0   85.7                   132.2                     97.2                365.5
            9     25       0.02  FRSD  FAGASA     59.3   77.0   89.9                   132.2                     97.2                365.5
           10     26       0.70  FRSE  AUA        35.3   55.0   74.5                   211.7                    165.8                763.4
           10     27       0.25  FRSE  FAGASA     51.2   70.0   85.7                   132.2                     97.2                365.5
           10     28       0.08  FRSE  AUA        51.2   70.0   85.7                   211.7                    165.8                763.4
           10     29       0.05  FRSE  AUA        51.2   70.0   85.7                   211.7                    165.8                763.4
           11     30       0.09  SWCH  AUA        39.4   59.0   77.7                   211.7                    165.8                763.4
           11     31       0.02  FRSE  AUA        35.3   55.0   74.5                   211.7                    165.8                763.4
           11     32       0.73  FRSE  AUA        35.3   55.0   74.5                   211.7                    165.8                763.4
           11     33       1.18  FRSE  FAGASA     51.2   70.0   85.7                   132.2                     97.2                365.5
           11     34       0.01  FRSE  AUA        51.2   70.0   85.7                   211.7                    165.8                763.4
           11     35       0.07  FRSE  AUA        51.2   70.0   85.7                   211.7                    165.8                763.4
           11     36       0.26  FRSD  AUA        46.8   66.0   83.0                   211.7                    165.8                763.4
           11     37       0.15  FRSD  FAGASA     59.3   77.0   89.9                   132.2                     97.2                365.5
           11     38       0.02  FRSD  AUA        59.3   77.0   89.9                   211.7                    165.8                763.4
           11     39       0.12  FRSD  AUA        59.3   77.0   89.9                   211.7                    165.8                763.4
           11     40       0.01  FRSD  FAGASA     59.3   77.0   89.9                   132.2                     97.2                365.5

         HRU Input Summary Table 2:
          Sub   HRU   Area(ha)         SoilName Hydgrp MaxRtDpth(mm) Albedo USLE_K USLE_P USLE_LS ProfileAWC(mm) IniSoilH2O(mm)
            1      1       7.26 FAGASA             C           840.00   0.16   0.10   1.00    8.22     97.200         71.232
            2      2       8.42 FAGASA             C           840.00   0.16   0.10   1.00    7.62     97.200         71.232
            2      3       0.05 FAGASA             C           840.00   0.16   0.10   1.00    9.84     97.200         71.232
            3      4       4.25 FAGASA             C           840.00   0.16   0.10   1.00    6.62     97.200         71.232
            4      5       6.42 FAGASA             C           840.00   0.16   0.10   1.00    8.17     97.200         71.232
            4      6       0.39 FAGASA             C           840.00   0.16   0.10   1.00    3.75     97.200         71.232
            5      7       0.48 AUA                B          1520.00   0.16   0.17   1.00    3.47    165.800        121.506
            5      8       3.91 FAGASA             C           840.00   0.16   0.10   1.00    8.86     97.200         71.232
            5      9       0.04 AUA                B          1520.00   0.16   0.17   1.00    4.84    165.800        121.506
            5     10       0.01 FAGASA             C           840.00   0.16   0.10   1.00    5.13     97.200         71.232
            5     11       0.01 AUA                B          1520.00   0.16   0.17   1.00    1.93    165.800        121.506
            5     12       0.01 AUA                B          1520.00   0.16   0.17   1.00    2.21    165.800        121.506
            6     13       0.85 AUA                B          1520.00   0.16   0.17   1.00    3.06    165.800        121.506
            6     14       7.65 FAGASA             C           840.00   0.16   0.10   1.00    4.41     97.200         71.232
            6     15       0.01 AUA                B          1520.00   0.16   0.17   1.00    1.85    165.800        121.506
            6     16       0.01 AUA                B          1520.00   0.16   0.17   1.00    1.69    165.800        121.506
            7     17       4.25 FAGASA             C           840.00   0.16   0.10   1.00    5.65     97.200         71.232
            7     18       0.14 FAGASA             C           840.00   0.16   0.10   1.00    4.55     97.200         71.232
            8     19       0.01 FAGASA             C           840.00   0.16   0.10   1.00    0.44     97.200         71.232
            8     20       3.39 FAGASA             C           840.00   0.16   0.10   1.00    6.45     97.200         71.232
            8     21       0.05 FAGASA             C           100.00   0.16   0.10   1.00    3.17     97.200         71.232
            8     22       0.02 FAGASA             C           840.00   0.16   0.10   1.00    5.82     97.200         71.232
            9     23       1.07 AUA                B          1520.00   0.16   0.17   1.00    2.85    165.800        121.506
            9     24       1.08 FAGASA             C           840.00   0.16   0.10   1.00    5.65     97.200         71.232
            9     25       0.02 FAGASA             C           840.00   0.16   0.10   1.00    8.51     97.200         71.232
           10     26       0.70 AUA                B          1520.00   0.16   0.17   1.00    2.63    165.800        121.506
           10     27       0.25 FAGASA             C           840.00   0.16   0.10   1.00    8.38     97.200         71.232
           10     28       0.08 AUA                B          1520.00   0.16   0.17   1.00    2.80    165.800        121.506
           10     29       0.05 AUA                B          1520.00   0.16   0.17   1.00    2.73    165.800        121.506
           11     30       0.09 AUA                B          1520.00   0.16   0.17   1.00    3.88    165.800        121.506
           11     31       0.02 AUA                B          1520.00   0.16   0.17   1.00    0.30    165.800        121.506
           11     32       0.73 AUA                B          1520.00   0.16   0.17   1.00    2.97    165.800        121.506
           11     33       1.18 FAGASA             C           840.00   0.16   0.10   1.00    3.56     97.200         71.232
           11     34       0.01 AUA                B          1520.00   0.16   0.17   1.00    0.35    165.800        121.506
           11     35       0.07 AUA                B          1520.00   0.16   0.17   1.00    1.39    165.800        121.506
           11     36       0.26 AUA                B          1520.00   0.16   0.17   1.00    3.15    165.800        121.506
           11     37       0.15 FAGASA             C           840.00   0.16   0.10   1.00    3.56     97.200         71.232
           11     38       0.02 AUA                B          1520.00   0.16   0.17   1.00    0.27    165.800        121.506
           11     39       0.12 AUA                B          1520.00   0.16   0.17   1.00    2.11    165.800        121.506
           11     40       0.01 FAGASA             C           840.00   0.16   0.10   1.00    4.66     97.200         71.232

         HRU Input Summary Table 3:
          Sub   HRU   Area(ha) Urban Irrig DrainTiles Pothole Pstcide Biomix Septic
            1      1       7.26                                          0.20 x
            2      2       8.42                                          0.20 x
            2      3       0.05                                          0.20 x
            3      4       4.25                                          0.20 x
            4      5       6.42                                          0.20 x
            4      6       0.39                                          0.20 x
            5      7       0.48                                          0.20 x
            5      8       3.91                                          0.20 x
            5      9       0.04                                          0.20 x
            5     10       0.01                                          0.20 x
            5     11       0.01                                          0.20 x
            5     12       0.01                                          0.20 x
            6     13       0.85                                          0.20 x
            6     14       7.65                                          0.20 x
            6     15       0.01                                          0.20 x
            6     16       0.01                                          0.20 x
            7     17       4.25                                          0.20 x
            7     18       0.14                                          0.20 x
            8     19       0.01                                          0.20 x
            8     20       3.39                                          0.20 x
            8     21       0.05                                          0.20 x
            8     22       0.02                                          0.20 x
            9     23       1.07                                          0.20 x
            9     24       1.08                                          0.20 x
            9     25       0.02                                          0.20 x
           10     26       0.70                                          0.20 x
           10     27       0.25                                          0.20 x
           10     28       0.08                                          0.20 x
           10     29       0.05                                          0.20 x
           11     30       0.09                                          0.20 x
           11     31       0.02                                          0.20 x
           11     32       0.73                                          0.20 x
           11     33       1.18                                          0.20 x
           11     34       0.01                                          0.20 x
           11     35       0.07                                          0.20 x
           11     36       0.26                                          0.20 x
           11     37       0.15                                          0.20 x
           11     38       0.02                                          0.20 x
           11     39       0.12                                          0.20 x
           11     40       0.01                                          0.20 x

         HRU Input Summary Table 4 (Groundwater):
          Sub   HRU   Area(ha) GWdelay(days), GWalpha(days) GWQmin(mm) GWrevap Revapmin(mm) Deepfr NO3(ppm) SolP(ppm)
            1      1       7.26        31.000         0.048   1000.000   0.020      750.000  0.050    0.000     0.000
            2      2       8.42        31.000         0.048   1000.000   0.020      750.000  0.050    0.000     0.000
            2      3       0.05        31.000         0.048   1000.000   0.020      750.000  0.050    0.000     0.000
            3      4       4.25        31.000         0.048   1000.000   0.020      750.000  0.050    0.000     0.000
            4      5       6.42        31.000         0.048   1000.000   0.020      750.000  0.050    0.000     0.000
            4      6       0.39        31.000         0.048   1000.000   0.020      750.000  0.050    0.000     0.000
            5      7       0.48        31.000         0.048   1000.000   0.020      750.000  0.050    0.000     0.000
            5      8       3.91        31.000         0.048   1000.000   0.020      750.000  0.050    0.000     0.000
            5      9       0.04        31.000         0.048   1000.000   0.020      750.000  0.050    0.000     0.000
            5     10       0.01        31.000         0.048   1000.000   0.020      750.000  0.050    0.000     0.000
            5     11       0.01        31.000         0.048   1000.000   0.020      750.000  0.050    0.000     0.000
            5     12       0.01        31.000         0.048   1000.000   0.020      750.000  0.050    0.000     0.000
            6     13       0.85        31.000         0.048   1000.000   0.020      750.000  0.050    0.000     0.000
            6     14       7.65        31.000         0.048   1000.000   0.020      750.000  0.050    0.000     0.000
            6     15       0.01        31.000         0.048   1000.000   0.020      750.000  0.050    0.000     0.000
            6     16       0.01        31.000         0.048   1000.000   0.020      750.000  0.050    0.000     0.000
            7     17       4.25        31.000         0.048   1000.000   0.020      750.000  0.050    0.000     0.000
            7     18       0.14        31.000         0.048   1000.000   0.020      750.000  0.050    0.000     0.000
            8     19       0.01        31.000         0.048   1000.000   0.020      750.000  0.050    0.000     0.000
            8     20       3.39        31.000         0.048   1000.000   0.020      750.000  0.050    0.000     0.000
            8     21       0.05        31.000         0.048   1000.000   0.020      750.000  0.050    0.000     0.000
            8     22       0.02        31.000         0.048   1000.000   0.020      750.000  0.050    0.000     0.000
            9     23       1.07        31.000         0.048   1000.000   0.020      750.000  0.050    0.000     0.000
            9     24       1.08        31.000         0.048   1000.000   0.020      750.000  0.050    0.000     0.000
            9     25       0.02        31.000         0.048   1000.000   0.020      750.000  0.050    0.000     0.000
           10     26       0.70        31.000         0.048   1000.000   0.020      750.000  0.050    0.000     0.000
           10     27       0.25        31.000         0.048   1000.000   0.020      750.000  0.050    0.000     0.000
           10     28       0.08        31.000         0.048   1000.000   0.020      750.000  0.050    0.000     0.000
           10     29       0.05        31.000         0.048   1000.000   0.020      750.000  0.050    0.000     0.000
           11     30       0.09        31.000         0.048   1000.000   0.020      750.000  0.050    0.000     0.000
           11     31       0.02        31.000         0.048   1000.000   0.020      750.000  0.050    0.000     0.000
           11     32       0.73        31.000         0.048   1000.000   0.020      750.000  0.050    0.000     0.000
           11     33       1.18        31.000         0.048   1000.000   0.020      750.000  0.050    0.000     0.000
           11     34       0.01        31.000         0.048   1000.000   0.020      750.000  0.050    0.000     0.000
           11     35       0.07        31.000         0.048   1000.000   0.020      750.000  0.050    0.000     0.000
           11     36       0.26        31.000         0.048   1000.000   0.020      750.000  0.050    0.000     0.000
           11     37       0.15        31.000         0.048   1000.000   0.020      750.000  0.050    0.000     0.000
           11     38       0.02        31.000         0.048   1000.000   0.020      750.000  0.050    0.000     0.000
           11     39       0.12        31.000         0.048   1000.000   0.020      750.000  0.050    0.000     0.000
           11     40       0.01        31.000         0.048   1000.000   0.020      750.000  0.050    0.000     0.000

         Tributary/Main Channel Characteristics
              |--------------Tributary--------------------|---------------------Main---------------------------|
          Sub  Length(km) Slope Width(m) Cond(mm/hr)     N Length(km) Slope Width(m) Depth(m) Cond(mm/hr)     N
            1        0.51 0.360     0.27      0.0000 0.014       0.25 0.330     0.27     0.05      0.0000 0.014
            2        0.53 0.390     0.29      0.0000 0.014       0.22 0.362     0.29     0.05      0.0000 0.014
            3        0.44 0.356     0.19      0.0000 0.014       0.11 0.351     0.19     0.04      0.0000 0.014
            4        0.48 0.377     0.26      0.0000 0.014       0.13 0.244     0.26     0.04      0.0000 0.014
            5        0.52 0.350     0.20      0.0000 0.014       0.07 0.119     0.20     0.04      0.0000 0.014
            6        0.65 0.216     0.29      0.0000 0.014       0.36 0.176     0.29     0.05      0.0000 0.014
            7        0.38 0.233     0.20      0.0000 0.014       0.16 0.165     0.42     0.06      0.0000 0.014
            8        0.35 0.328     0.17      0.0000 0.014       0.19 0.115     0.58     0.08      0.0000 0.014
            9        0.33 0.185     0.13      0.0000 0.014       0.23 0.133     0.71     0.09      0.0000 0.014
           10        0.29 0.259     0.09      0.0000 0.014       0.11 0.092     0.77     0.09      0.0000 0.014
           11        0.28 0.211     0.15      0.0000 0.014       0.04 0.024     0.89     0.10      0.0000 0.014
