1
    SWAT Dec 23 2016    VER 2016/Rev 664                                                                 0/ 0/   0      0: 0: 0

    General Input/Output section (file.cio):                                        
    2/11/2020 16:50:08 QSWAT Workflow v1.5.2                                        
                                                                                    


       RCH      GIS   MON     AREAkm2  FLOW_INcms FLOW_OUTcms     EVAPcms    TLOSScms  SED_INtons SED_OUTtons SEDCONCmg/L   ORGN_INkg  ORGN_OUTkg   ORGP_INkg  ORGP_OUTkg    NO3_INkg   NO3_OUTkg    NH4_INkg   NH4_OUTkg    NO2_INkg   NO2_OUTkg   MINP_INkg  MINP_OUTkg   CHLA_INkg  CHLA_OUTkg   CBOD_INkg  CBOD_OUTkg  DISOX_INkg DISOX_OUTkg SOLPST_INmgSOLPST_OUTmg SORPST_INmgSORPST_OUTmg  REACTPSTmg    VOLPSTmg  SETTLPSTmgRESUSP_PSTmgDIFFUSEPSTmgREACBEDPSTmg   BURYPSTmg   BED_PSTmg BACTP_OUTctBACTLP_OUTct  CMETAL#1kg  CMETAL#2kg  CMETAL#3kg     TOT Nkg     TOT Pkg NO3ConcMg/l    WTMPdegc
REACH    1        0     1  0.7264E-01  0.1246E-01  0.1245E-01  0.3749E-05  0.0000E+00  0.7797E+02  0.7797E+02  0.9788E+03  0.1821E+03  0.1820E+03  0.4006E+02  0.4003E+02  0.3124E+01  0.3123E+01  0.0000E+00  0.6461E-01  0.0000E+00  0.0000E+00  0.6618E-01  0.8948E-01  0.1939E+01  0.1880E+01  0.1090E+05  0.1086E+05  0.2003E+03  0.9779E+02  0.0000E+00  0.0000E+00  0.0000E+00  0.0000E+00  0.0000E+00  0.0000E+00  0.0000E+00  0.0000E+00  0.0000E+00  0.0000E+00  0.0000E+00  0.0000E+00  0.0000E+00  0.0000E+00  0.0000E+00  0.0000E+00  0.0000E+00  0.1852E+03  0.4012E+02  0.0000E+00  0.0000E+00
REACH    2        0     1  0.8475E-01  0.1449E-01  0.1448E-01  0.3717E-05  0.0000E+00  0.8571E+02  0.8571E+02  0.9244E+03  0.2073E+03  0.2071E+03  0.4559E+02  0.4556E+02  0.3689E+01  0.3687E+01  0.0000E+00  0.6377E-01  0.0000E+00  0.0000E+00  0.8018E-01  0.1032E+00  0.2222E+01  0.2165E+01  0.1219E+05  0.1215E+05  0.2325E+03  0.1137E+03  0.0000E+00  0.0000E+00  0.0000E+00  0.0000E+00  0.0000E+00  0.0000E+00  0.0000E+00  0.0000E+00  0.0000E+00  0.0000E+00  0.0000E+00  0.0000E+00  0.0000E+00  0.0000E+00  0.0000E+00  0.0000E+00  0.0000E+00  0.2109E+03  0.4566E+02  0.0000E+00  0.0000E+00
REACH    3        0     1  0.4248E-01  0.7247E-02  0.7246E-02  0.1435E-05  0.0000E+00  0.3503E+02  0.3503E+02  0.7557E+03  0.9790E+02  0.9786E+02  0.2151E+02  0.2150E+02  0.1883E+01  0.1882E+01  0.0000E+00  0.1996E-01  0.0000E+00  0.0000E+00  0.4129E-01  0.4847E-01  0.1056E+01  0.1035E+01  0.5275E+04  0.5265E+04  0.1160E+03  0.5728E+02  0.0000E+00  0.0000E+00  0.0000E+00  0.0000E+00  0.0000E+00  0.0000E+00  0.0000E+00  0.0000E+00  0.0000E+00  0.0000E+00  0.0000E+00  0.0000E+00  0.0000E+00  0.0000E+00  0.0000E+00  0.0000E+00  0.0000E+00  0.9976E+02  0.2155E+02  0.0000E+00  0.0000E+00
REACH    4        0     1  0.6813E-01  0.1168E-01  0.1168E-01  0.2083E-05  0.0000E+00  0.6753E+02  0.6753E+02  0.9017E+03  0.1602E+03  0.1601E+03  0.3524E+02  0.3522E+02  0.2927E+01  0.2927E+01  0.0000E+00  0.3742E-01  0.0000E+00  0.0000E+00  0.7978E-01  0.9328E-01  0.1708E+01  0.1676E+01  0.9492E+04  0.9469E+04  0.1895E+03  0.9174E+02  0.0000E+00  0.0000E+00  0.0000E+00  0.0000E+00  0.0000E+00  0.0000E+00  0.0000E+00  0.0000E+00  0.0000E+00  0.0000E+00  0.0000E+00  0.0000E+00  0.0000E+00  0.0000E+00  0.0000E+00  0.0000E+00  0.0000E+00  0.1631E+03  0.3531E+02  0.0000E+00  0.0000E+00
REACH    5        0     1  0.4463E-01  0.7514E-02  0.7513E-02  0.1192E-05  0.0000E+00  0.4233E+02  0.4233E+02  0.8939E+03  0.1028E+03  0.1027E+03  0.2258E+02  0.2256E+02  0.1812E+01  0.1812E+01  0.0000E+00  0.2109E-01  0.0000E+00  0.0000E+00  0.4540E-01  0.5301E-01  0.1073E+01  0.1054E+01  0.5892E+04  0.5879E+04  0.1237E+03  0.6109E+02  0.0000E+00  0.0000E+00  0.0000E+00  0.0000E+00  0.0000E+00  0.0000E+00  0.0000E+00  0.0000E+00  0.0000E+00  0.0000E+00  0.0000E+00  0.0000E+00  0.0000E+00  0.0000E+00  0.0000E+00  0.0000E+00  0.0000E+00  0.1046E+03  0.2262E+02  0.0000E+00  0.0000E+00
REACH    6        0     1  0.8526E-01  0.1420E-01  0.1420E-01  0.6245E-05  0.0000E+00  0.4824E+02  0.4824E+02  0.5423E+03  0.1659E+03  0.1657E+03  0.3636E+02  0.3629E+02  0.3570E+01  0.3567E+01  0.0000E+00  0.1222E+00  0.0000E+00  0.0000E+00  0.8861E-01  0.1325E+00  0.1805E+01  0.1704E+01  0.7877E+04  0.7815E+04  0.2299E+03  0.1172E+03  0.0000E+00  0.0000E+00  0.0000E+00  0.0000E+00  0.0000E+00  0.0000E+00  0.0000E+00  0.0000E+00  0.0000E+00  0.0000E+00  0.0000E+00  0.0000E+00  0.0000E+00  0.0000E+00  0.0000E+00  0.0000E+00  0.0000E+00  0.1694E+03  0.3642E+02  0.0000E+00  0.0000E+00
REACH    7        0     1  0.1545E+00  0.2640E-01  0.2639E-01  0.3705E-05  0.0000E+00  0.1330E+03  0.1336E+02  0.1624E+03  0.3512E+03  0.3510E+03  0.7718E+02  0.7713E+02  0.6765E+01  0.6763E+01  0.5737E-01  0.1490E+00  0.0000E+00  0.6879E-05  0.1922E+00  0.2266E+00  0.3725E+01  0.3661E+01  0.1950E+05  0.1945E+05  0.2689E+03  0.2082E+03  0.0000E+00  0.0000E+00  0.0000E+00  0.0000E+00  0.0000E+00  0.0000E+00  0.0000E+00  0.0000E+00  0.0000E+00  0.0000E+00  0.0000E+00  0.0000E+00  0.0000E+00  0.0000E+00  0.0000E+00  0.0000E+00  0.0000E+00  0.3579E+03  0.7736E+02  0.0000E+00  0.0000E+00
REACH    8        0     1  0.2618E+00  0.4477E-01  0.4477E-01  0.6382E-05  0.0000E+00  0.1186E+03  0.2534E+02  0.1729E+03  0.6110E+03  0.6107E+03  0.1343E+03  0.1342E+03  0.1142E+02  0.1141E+02  0.2136E+00  0.4052E+00  0.6879E-05  0.5652E-04  0.3518E+00  0.4211E+00  0.6407E+01  0.6299E+01  0.3454E+05  0.3443E+05  0.4003E+03  0.3411E+03  0.0000E+00  0.0000E+00  0.0000E+00  0.0000E+00  0.0000E+00  0.0000E+00  0.0000E+00  0.0000E+00  0.0000E+00  0.0000E+00  0.0000E+00  0.0000E+00  0.0000E+00  0.0000E+00  0.0000E+00  0.0000E+00  0.0000E+00  0.6225E+03  0.1346E+03  0.0000E+00  0.0000E+00
REACH    9        0     1  0.3682E+00  0.6254E-01  0.6253E-01  0.7661E-05  0.0000E+00  0.1186E+03  0.4150E+02  0.1970E+03  0.8494E+03  0.8490E+03  0.1866E+03  0.1865E+03  0.1582E+02  0.1582E+02  0.4690E+00  0.7244E+00  0.5652E-04  0.1067E-03  0.5483E+00  0.6406E+00  0.8793E+01  0.8658E+01  0.4781E+05  0.4765E+05  0.5114E+03  0.4850E+03  0.0000E+00  0.0000E+00  0.0000E+00  0.0000E+00  0.0000E+00  0.0000E+00  0.0000E+00  0.0000E+00  0.0000E+00  0.0000E+00  0.0000E+00  0.0000E+00  0.0000E+00  0.0000E+00  0.0000E+00  0.0000E+00  0.0000E+00  0.8655E+03  0.1871E+03  0.0000E+00  0.0000E+00
REACH   10        0     1  0.4236E+00  0.7156E-01  0.7156E-01  0.4597E-05  0.0000E+00  0.8640E+02  0.4153E+02  0.1784E+03  0.9644E+03  0.9641E+03  0.2118E+03  0.2117E+03  0.1790E+02  0.1790E+02  0.7455E+00  0.9046E+00  0.1067E-03  0.1670E-03  0.7070E+00  0.7645E+00  0.9863E+01  0.9788E+01  0.5395E+05  0.5386E+05  0.5726E+03  0.5613E+03  0.0000E+00  0.0000E+00  0.0000E+00  0.0000E+00  0.0000E+00  0.0000E+00  0.0000E+00  0.0000E+00  0.0000E+00  0.0000E+00  0.0000E+00  0.0000E+00  0.0000E+00  0.0000E+00  0.0000E+00  0.0000E+00  0.0000E+00  0.9829E+03  0.2125E+03  0.0000E+00  0.0000E+00
REACH   11        0     1  0.5356E+00  0.8984E-01  0.8984E-01  0.2315E-05  0.0000E+00  0.9542E+02  0.3111E+02  0.1134E+03  0.1158E+04  0.1158E+04  0.2542E+03  0.2541E+03  0.2238E+02  0.2238E+02  0.1027E+01  0.1132E+01  0.1670E-03  0.2130E-03  0.9585E+00  0.9966E+00  0.1181E+02  0.1177E+02  0.6269E+05  0.6263E+05  0.7509E+03  0.7153E+03  0.0000E+00  0.0000E+00  0.0000E+00  0.0000E+00  0.0000E+00  0.0000E+00  0.0000E+00  0.0000E+00  0.0000E+00  0.0000E+00  0.0000E+00  0.0000E+00  0.0000E+00  0.0000E+00  0.0000E+00  0.0000E+00  0.0000E+00  0.1182E+04  0.2551E+03  0.0000E+00  0.0000E+00
REACH    1        0     2  0.7264E-01  0.4080E-02  0.4078E-02  0.1910E-05  0.0000E+00  0.3918E+02  0.3918E+02  0.4169E+03  0.4930E+02  0.4928E+02  0.1086E+02  0.1085E+02  0.8808E+00  0.8804E+00  0.0000E+00  0.1670E-01  0.0000E+00  0.0000E+00  0.1106E-01  0.1697E-01  0.6965E+00  0.6775E+00  0.5734E+04  0.5715E+04  0.5525E+02  0.3403E+02  0.0000E+00  0.0000E+00  0.0000E+00  0.0000E+00  0.0000E+00  0.0000E+00  0.0000E+00  0.0000E+00  0.0000E+00  0.0000E+00  0.0000E+00  0.0000E+00  0.0000E+00  0.0000E+00  0.0000E+00  0.0000E+00  0.0000E+00  0.5017E+02  0.1086E+02  0.0000E+00  0.0000E+00
REACH    2        0     2  0.8475E-01  0.4742E-02  0.4740E-02  0.1924E-05  0.0000E+00  0.4294E+02  0.4294E+02  0.3925E+03  0.5647E+02  0.5645E+02  0.1243E+02  0.1242E+02  0.1027E+01  0.1026E+01  0.0000E+00  0.1683E-01  0.0000E+00  0.0000E+00  0.1358E-01  0.1953E-01  0.8016E+00  0.7830E+00  0.6388E+04  0.6369E+04  0.6407E+02  0.3948E+02  0.0000E+00  0.0000E+00  0.0000E+00  0.0000E+00  0.0000E+00  0.0000E+00  0.0000E+00  0.0000E+00  0.0000E+00  0.0000E+00  0.0000E+00  0.0000E+00  0.0000E+00  0.0000E+00  0.0000E+00  0.0000E+00  0.0000E+00  0.5749E+02  0.1244E+02  0.0000E+00  0.0000E+00
REACH    3        0     2  0.4248E-01  0.2496E-02  0.2495E-02  0.6165E-06  0.0000E+00  0.1743E+02  0.1743E+02  0.3178E+03  0.2742E+02  0.2741E+02  0.6028E+01  0.6025E+01  0.5129E+00  0.5128E+00  0.0000E+00  0.4714E-02  0.0000E+00  0.0000E+00  0.7152E-02  0.8808E-02  0.3893E+00  0.3828E+00  0.2736E+04  0.2731E+04  0.3442E+02  0.2201E+02  0.0000E+00  0.0000E+00  0.0000E+00  0.0000E+00  0.0000E+00  0.0000E+00  0.0000E+00  0.0000E+00  0.0000E+00  0.0000E+00  0.0000E+00  0.0000E+00  0.0000E+00  0.0000E+00  0.0000E+00  0.0000E+00  0.0000E+00  0.2793E+02  0.6034E+01  0.0000E+00  0.0000E+00
REACH    4        0     2  0.6813E-01  0.3840E-02  0.3839E-02  0.9949E-06  0.0000E+00  0.3394E+02  0.3394E+02  0.3841E+03  0.4354E+02  0.4353E+02  0.9587E+01  0.9581E+01  0.8165E+00  0.8163E+00  0.0000E+00  0.1235E-01  0.0000E+00  0.0000E+00  0.1427E-01  0.1867E-01  0.6158E+00  0.6029E+00  0.4994E+04  0.4980E+04  0.5209E+02  0.3208E+02  0.0000E+00  0.0000E+00  0.0000E+00  0.0000E+00  0.0000E+00  0.0000E+00  0.0000E+00  0.0000E+00  0.0000E+00  0.0000E+00  0.0000E+00  0.0000E+00  0.0000E+00  0.0000E+00  0.0000E+00  0.0000E+00  0.0000E+00  0.4435E+02  0.9600E+01  0.0000E+00  0.0000E+00
REACH    5        0     2  0.4463E-01  0.2673E-02  0.2672E-02  0.5223E-06  0.0000E+00  0.2136E+02  0.2136E+02  0.3828E+03  0.2851E+02  0.2850E+02  0.6262E+01  0.6259E+01  0.5273E+00  0.5271E+00  0.0000E+00  0.5576E-02  0.0000E+00  0.0000E+00  0.8383E-02  0.1037E-01  0.3955E+00  0.3892E+00  0.3123E+04  0.3117E+04  0.3809E+02  0.2494E+02  0.0000E+00  0.0000E+00  0.0000E+00  0.0000E+00  0.0000E+00  0.0000E+00  0.0000E+00  0.0000E+00  0.0000E+00  0.0000E+00  0.0000E+00  0.0000E+00  0.0000E+00  0.0000E+00  0.0000E+00  0.0000E+00  0.0000E+00  0.2903E+02  0.6270E+01  0.0000E+00  0.0000E+00
REACH    6        0     2  0.8526E-01  0.5417E-02  0.5414E-02  0.3185E-05  0.0000E+00  0.2377E+02  0.2377E+02  0.2258E+03  0.4860E+02  0.4854E+02  0.1064E+02  0.1063E+02  0.9247E+00  0.9240E+00  0.0000E+00  0.3801E-01  0.0000E+00  0.0000E+00  0.1671E-01  0.3014E-01  0.6967E+00  0.6592E+00  0.4061E+04  0.4029E+04  0.7824E+02  0.5402E+02  0.0000E+00  0.0000E+00  0.0000E+00  0.0000E+00  0.0000E+00  0.0000E+00  0.0000E+00  0.0000E+00  0.0000E+00  0.0000E+00  0.0000E+00  0.0000E+00  0.0000E+00  0.0000E+00  0.0000E+00  0.0000E+00  0.0000E+00  0.4950E+02  0.1066E+02  0.0000E+00  0.0000E+00
REACH    7        0     2  0.1545E+00  0.8939E-02  0.8937E-02  0.2023E-05  0.0000E+00  0.6643E+02  0.3566E+01  0.7883E+02  0.9745E+02  0.9741E+02  0.2143E+02  0.2142E+02  0.1843E+01  0.1843E+01  0.1706E-01  0.4406E-01  0.0000E+00  0.1763E-05  0.3663E-01  0.4624E-01  0.1366E+01  0.1344E+01  0.1017E+05  0.1014E+05  0.9012E+02  0.7734E+02  0.0000E+00  0.0000E+00  0.0000E+00  0.0000E+00  0.0000E+00  0.0000E+00  0.0000E+00  0.0000E+00  0.0000E+00  0.0000E+00  0.0000E+00  0.0000E+00  0.0000E+00  0.0000E+00  0.0000E+00  0.0000E+00  0.0000E+00  0.9930E+02  0.2146E+02  0.0000E+00  0.0000E+00
REACH    8        0     2  0.2618E+00  0.1506E-01  0.1506E-01  0.3582E-05  0.0000E+00  0.5620E+02  0.6913E+01  0.8508E+02  0.1686E+03  0.1685E+03  0.3708E+02  0.3706E+02  0.3148E+01  0.3147E+01  0.6076E-01  0.1112E+00  0.1763E-05  0.5466E-05  0.6950E-01  0.8744E-01  0.2336E+01  0.2301E+01  0.1803E+05  0.1797E+05  0.1395E+03  0.1264E+03  0.0000E+00  0.0000E+00  0.0000E+00  0.0000E+00  0.0000E+00  0.0000E+00  0.0000E+00  0.0000E+00  0.0000E+00  0.0000E+00  0.0000E+00  0.0000E+00  0.0000E+00  0.0000E+00  0.0000E+00  0.0000E+00  0.0000E+00  0.1718E+03  0.3714E+02  0.0000E+00  0.0000E+00
REACH    9        0     2  0.3682E+00  0.2145E-01  0.2145E-01  0.5311E-05  0.0000E+00  0.5365E+02  0.9984E+01  0.9694E+02  0.2352E+03  0.2351E+03  0.5169E+02  0.5165E+02  0.4409E+01  0.4407E+01  0.1280E+00  0.2065E+00  0.5466E-05  0.1608E-04  0.1124E+00  0.1403E+00  0.3224E+01  0.3175E+01  0.2499E+05  0.2491E+05  0.1925E+03  0.1865E+03  0.0000E+00  0.0000E+00  0.0000E+00  0.0000E+00  0.0000E+00  0.0000E+00  0.0000E+00  0.0000E+00  0.0000E+00  0.0000E+00  0.0000E+00  0.0000E+00  0.0000E+00  0.0000E+00  0.0000E+00  0.0000E+00  0.0000E+00  0.2397E+03  0.5179E+02  0.0000E+00  0.0000E+00
REACH   10        0     2  0.4236E+00  0.2504E-01  0.2504E-01  0.2810E-05  0.0000E+00  0.3267E+02  0.1146E+02  0.1021E+03  0.2680E+03  0.2680E+03  0.5887E+02  0.5885E+02  0.5045E+01  0.5044E+01  0.2121E+00  0.2540E+00  0.1608E-04  0.2252E-04  0.1540E+00  0.1689E+00  0.3631E+01  0.3607E+01  0.2826E+05  0.2821E+05  0.2269E+03  0.2243E+03  0.0000E+00  0.0000E+00  0.0000E+00  0.0000E+00  0.0000E+00  0.0000E+00  0.0000E+00  0.0000E+00  0.0000E+00  0.0000E+00  0.0000E+00  0.0000E+00  0.0000E+00  0.0000E+00  0.0000E+00  0.0000E+00  0.0000E+00  0.2733E+03  0.5902E+02  0.0000E+00  0.0000E+00
REACH   11        0     2  0.5356E+00  0.3249E-01  0.3249E-01  0.1252E-05  0.0000E+00  0.3803E+02  0.9826E+01  0.7387E+02  0.3258E+03  0.3257E+03  0.7148E+02  0.7147E+02  0.6245E+01  0.6245E+01  0.2920E+00  0.3192E+00  0.2252E-04  0.2659E-04  0.2126E+00  0.2224E+00  0.4400E+01  0.4387E+01  0.3277E+05  0.3275E+05  0.3112E+03  0.3032E+03  0.0000E+00  0.0000E+00  0.0000E+00  0.0000E+00  0.0000E+00  0.0000E+00  0.0000E+00  0.0000E+00  0.0000E+00  0.0000E+00  0.0000E+00  0.0000E+00  0.0000E+00  0.0000E+00  0.0000E+00  0.0000E+00  0.0000E+00  0.3323E+03  0.7169E+02  0.0000E+00  0.0000E+00
REACH    1        0     3  0.7264E-01  0.1069E-02  0.1067E-02  0.1410E-05  0.0000E+00  0.3100E-07  0.3100E-07  0.9183E-03  0.2252E-06  0.6045E-07  0.6756E-06  0.2075E-06  0.2602E-02  0.2600E-02  0.0000E+00  0.5533E-03  0.0000E+00  0.0000E+00  0.2254E-06  0.2117E-06  0.1385E-15  0.0000E+00  0.0000E+00  0.0000E+00  0.2362E+02  0.2296E+02  0.0000E+00  0.0000E+00  0.0000E+00  0.0000E+00  0.0000E+00  0.0000E+00  0.0000E+00  0.0000E+00  0.0000E+00  0.0000E+00  0.0000E+00  0.0000E+00  0.0000E+00  0.0000E+00  0.0000E+00  0.0000E+00  0.0000E+00  0.3153E-02  0.4192E-06  0.0000E+00  0.0000E+00
REACH    2        0     3  0.8475E-01  0.1227E-02  0.1226E-02  0.1435E-05  0.0000E+00  0.6200E-07  0.6200E-07  0.1234E-02  0.2627E-06  0.7740E-07  0.7882E-06  0.2662E-06  0.3482E-02  0.3479E-02  0.0000E+00  0.5920E-03  0.0000E+00  0.0000E+00  0.1403E-05  0.2475E-05  0.6881E-11  0.0000E+00  0.0000E+00  0.0000E+00  0.2713E+02  0.2638E+02  0.0000E+00  0.0000E+00  0.0000E+00  0.0000E+00  0.0000E+00  0.0000E+00  0.0000E+00  0.0000E+00  0.0000E+00  0.0000E+00  0.0000E+00  0.0000E+00  0.0000E+00  0.0000E+00  0.0000E+00  0.0000E+00  0.0000E+00  0.4072E-02  0.2741E-05  0.0000E+00  0.0000E+00
REACH    3        0     3  0.4248E-01  0.6623E-03  0.6619E-03  0.4526E-06  0.0000E+00  0.3100E-07  0.3100E-07  0.6965E-04  0.1317E-06  0.4081E-08  0.3950E-06  0.1641E-06  0.2955E-02  0.2952E-02  0.0000E+00  0.1748E-03  0.0000E+00  0.0000E+00  0.1318E-06  0.1243E-07  0.3065E-18  0.0000E+00  0.0000E+00  0.0000E+00  0.1464E+02  0.1424E+02  0.0000E+00  0.0000E+00  0.0000E+00  0.0000E+00  0.0000E+00  0.0000E+00  0.0000E+00  0.0000E+00  0.0000E+00  0.0000E+00  0.0000E+00  0.0000E+00  0.0000E+00  0.0000E+00  0.0000E+00  0.0000E+00  0.0000E+00  0.3127E-02  0.1765E-06  0.0000E+00  0.0000E+00
REACH    4        0     3  0.6813E-01  0.1004E-02  0.1003E-02  0.7280E-06  0.0000E+00  0.6200E-07  0.6200E-07  0.3409E-03  0.2112E-06  0.7192E-07  0.6336E-06  0.2742E-06  0.3164E-02  0.3161E-02  0.0000E+00  0.3035E-03  0.0000E+00  0.0000E+00  0.2688E-04  0.2926E-04  0.8868E-09  0.0000E+00  0.0000E+00  0.0000E+00  0.2219E+02  0.2159E+02  0.0000E+00  0.0000E+00  0.0000E+00  0.0000E+00  0.0000E+00  0.0000E+00  0.0000E+00  0.0000E+00  0.0000E+00  0.0000E+00  0.0000E+00  0.0000E+00  0.0000E+00  0.0000E+00  0.0000E+00  0.0000E+00  0.0000E+00  0.3464E-02  0.2953E-04  0.0000E+00  0.0000E+00
REACH    5        0     3  0.4463E-01  0.7938E-03  0.7934E-03  0.3464E-06  0.0000E+00  0.1859E-06  0.1859E-06  0.1977E-03  0.1384E-06  0.0000E+00  0.4151E-06  0.1333E-07  0.1064E-01  0.1063E-01  0.0000E+00  0.1323E-03  0.0000E+00  0.0000E+00  0.2562E-04  0.2762E-04  0.2594E-07  0.0000E+00  0.0000E+00  0.0000E+00  0.1754E+02  0.1707E+02  0.0000E+00  0.0000E+00  0.0000E+00  0.0000E+00  0.0000E+00  0.0000E+00  0.0000E+00  0.0000E+00  0.0000E+00  0.0000E+00  0.0000E+00  0.0000E+00  0.0000E+00  0.0000E+00  0.0000E+00  0.0000E+00  0.0000E+00  0.1076E-01  0.2764E-04  0.0000E+00  0.0000E+00
REACH    6        0     3  0.8526E-01  0.1527E-02  0.1524E-02  0.2414E-05  0.0000E+00  0.1239E-06  0.1239E-06  0.5122E-04  0.2643E-06  0.0000E+00  0.7929E-06  0.0000E+00  0.2632E-01  0.2626E-01  0.0000E+00  0.1019E-02  0.0000E+00  0.0000E+00  0.1438E-05  0.2279E-05  0.7095E-11  0.0000E+00  0.0000E+00  0.0000E+00  0.3374E+02  0.3279E+02  0.0000E+00  0.0000E+00  0.0000E+00  0.0000E+00  0.0000E+00  0.0000E+00  0.0000E+00  0.0000E+00  0.0000E+00  0.0000E+00  0.0000E+00  0.0000E+00  0.0000E+00  0.0000E+00  0.0000E+00  0.0000E+00  0.0000E+00  0.2728E-01  0.2279E-05  0.0000E+00  0.0000E+00
REACH    7        0     3  0.1545E+00  0.2360E-02  0.2358E-02  0.1553E-05  0.0000E+00  0.1550E-06  0.7447E+00  0.5807E+02  0.2121E-06  0.1450E-07  0.8467E-06  0.5825E-06  0.1040E-01  0.1039E-01  0.4783E-03  0.1179E-02  0.0000E+00  0.2072E-05  0.3790E-04  0.4277E-04  0.1954E-09  0.0000E+00  0.0000E+00  0.0000E+00  0.5118E+02  0.5074E+02  0.0000E+00  0.0000E+00  0.0000E+00  0.0000E+00  0.0000E+00  0.0000E+00  0.0000E+00  0.0000E+00  0.0000E+00  0.0000E+00  0.0000E+00  0.0000E+00  0.0000E+00  0.0000E+00  0.0000E+00  0.0000E+00  0.0000E+00  0.1157E-01  0.4335E-04  0.0000E+00  0.0000E+00
REACH    8        0     3  0.2618E+00  0.3958E-02  0.3956E-02  0.2806E-05  0.0000E+00  0.8330E+00  0.1308E+01  0.5994E+02  0.6070E-01  0.6066E-01  0.1366E-01  0.1365E-01  0.1721E-01  0.1719E-01  0.1732E-02  0.3060E-02  0.2072E-05  0.6929E-05  0.7537E-04  0.1073E-03  0.1465E-02  0.1379E-02  0.2067E+02  0.2059E+02  0.8536E+02  0.6065E+02  0.0000E+00  0.0000E+00  0.0000E+00  0.0000E+00  0.0000E+00  0.0000E+00  0.0000E+00  0.0000E+00  0.0000E+00  0.0000E+00  0.0000E+00  0.0000E+00  0.0000E+00  0.0000E+00  0.0000E+00  0.0000E+00  0.0000E+00  0.8091E-01  0.1376E-01  0.0000E+00  0.0000E+00
REACH    9        0     3  0.3682E+00  0.5851E-02  0.5847E-02  0.4169E-05  0.0000E+00  0.1308E+01  0.2104E+01  0.7276E+02  0.6066E-01  0.6061E-01  0.1365E-01  0.1363E-01  0.4681E-01  0.4673E-01  0.3652E-02  0.5661E-02  0.6929E-05  0.1902E-04  0.1104E-03  0.1633E-03  0.1379E-02  0.1295E-02  0.2059E+02  0.2050E+02  0.1018E+03  0.9886E+02  0.0000E+00  0.0000E+00  0.0000E+00  0.0000E+00  0.0000E+00  0.0000E+00  0.0000E+00  0.0000E+00  0.0000E+00  0.0000E+00  0.0000E+00  0.0000E+00  0.0000E+00  0.0000E+00  0.0000E+00  0.0000E+00  0.0000E+00  0.1130E+00  0.1380E-01  0.0000E+00  0.0000E+00
REACH   10        0     3  0.4236E+00  0.7073E-02  0.7071E-02  0.2213E-05  0.0000E+00  0.2104E+01  0.2283E+01  0.7709E+02  0.6061E-01  0.6059E-01  0.1363E-01  0.1363E-01  0.7845E-01  0.7839E-01  0.5793E-02  0.6865E-02  0.1902E-04  0.2707E-04  0.1959E-03  0.2291E-03  0.1295E-02  0.1258E-02  0.2050E+02  0.2045E+02  0.1255E+03  0.1244E+03  0.0000E+00  0.0000E+00  0.0000E+00  0.0000E+00  0.0000E+00  0.0000E+00  0.0000E+00  0.0000E+00  0.0000E+00  0.0000E+00  0.0000E+00  0.0000E+00  0.0000E+00  0.0000E+00  0.0000E+00  0.0000E+00  0.0000E+00  0.1459E+00  0.1386E-01  0.0000E+00  0.0000E+00
REACH   11        0     3  0.5356E+00  0.9395E-02  0.9394E-02  0.9839E-06  0.0000E+00  0.2283E+01  0.2063E+01  0.5525E+02  0.6059E-01  0.6058E-01  0.1363E-01  0.1362E-01  0.2725E+00  0.2725E+00  0.7884E-02  0.8350E-02  0.2707E-04  0.3142E-04  0.4238E-03  0.4358E-03  0.1258E-02  0.1245E-02  0.2045E+02  0.2043E+02  0.1748E+03  0.1731E+03  0.0000E+00  0.0000E+00  0.0000E+00  0.0000E+00  0.0000E+00  0.0000E+00  0.0000E+00  0.0000E+00  0.0000E+00  0.0000E+00  0.0000E+00  0.0000E+00  0.0000E+00  0.0000E+00  0.0000E+00  0.0000E+00  0.0000E+00  0.3414E+00  0.1406E-01  0.0000E+00  0.0000E+00
REACH    1        0     4  0.7264E-01  0.3872E-02  0.3870E-02  0.2248E-05  0.0000E+00  0.1074E+00  0.1074E+00  0.1097E+01  0.1841E+00  0.1840E+00  0.3989E-01  0.3984E-01  0.2072E+00  0.2072E+00  0.0000E+00  0.7367E-03  0.0000E+00  0.0000E+00  0.5401E-02  0.5441E-02  0.8054E-03  0.7772E-03  0.1342E+02  0.1336E+02  0.7574E+02  0.6402E+02  0.0000E+00  0.0000E+00  0.0000E+00  0.0000E+00  0.0000E+00  0.0000E+00  0.0000E+00  0.0000E+00  0.0000E+00  0.0000E+00  0.0000E+00  0.0000E+00  0.0000E+00  0.0000E+00  0.0000E+00  0.0000E+00  0.0000E+00  0.3919E+00  0.4528E-01  0.0000E+00  0.0000E+00
REACH    2        0     4  0.8475E-01  0.4481E-02  0.4479E-02  0.2286E-05  0.0000E+00  0.1238E+00  0.1238E+00  0.1082E+01  0.2215E+00  0.2213E+00  0.4802E-01  0.4797E-01  0.2433E+00  0.2433E+00  0.0000E+00  0.7756E-03  0.0000E+00  0.0000E+00  0.6947E-02  0.6990E-02  0.1033E-02  0.1003E-02  0.1590E+02  0.1584E+02  0.8744E+02  0.7376E+02  0.0000E+00  0.0000E+00  0.0000E+00  0.0000E+00  0.0000E+00  0.0000E+00  0.0000E+00  0.0000E+00  0.0000E+00  0.0000E+00  0.0000E+00  0.0000E+00  0.0000E+00  0.0000E+00  0.0000E+00  0.0000E+00  0.0000E+00  0.4653E+00  0.5496E-01  0.0000E+00  0.0000E+00
REACH    3        0     4  0.4248E-01  0.2208E-02  0.2207E-02  0.7494E-06  0.0000E+00  0.5482E-01  0.5482E-01  0.9552E+00  0.1119E+00  0.1119E+00  0.2425E-01  0.2423E-01  0.1246E+00  0.1246E+00  0.0000E+00  0.2341E-03  0.0000E+00  0.0000E+00  0.3989E-02  0.4003E-02  0.5670E-03  0.5549E-03  0.7371E+01  0.7354E+01  0.4323E+02  0.3684E+02  0.0000E+00  0.0000E+00  0.0000E+00  0.0000E+00  0.0000E+00  0.0000E+00  0.0000E+00  0.0000E+00  0.0000E+00  0.0000E+00  0.0000E+00  0.0000E+00  0.0000E+00  0.0000E+00  0.0000E+00  0.0000E+00  0.0000E+00  0.2367E+00  0.2823E-01  0.0000E+00  0.0000E+00
REACH    4        0     4  0.6813E-01  0.3622E-02  0.3621E-02  0.1143E-05  0.0000E+00  0.9571E-01  0.9571E-01  0.1038E+01  0.1777E+00  0.1776E+00  0.3861E-01  0.3859E-01  0.1851E+00  0.1850E+00  0.0000E+00  0.3818E-03  0.0000E+00  0.0000E+00  0.8257E-02  0.8277E-02  0.9146E-03  0.8973E-03  0.1220E+02  0.1217E+02  0.7093E+02  0.6017E+02  0.0000E+00  0.0000E+00  0.0000E+00  0.0000E+00  0.0000E+00  0.0000E+00  0.0000E+00  0.0000E+00  0.0000E+00  0.0000E+00  0.0000E+00  0.0000E+00  0.0000E+00  0.0000E+00  0.0000E+00  0.0000E+00  0.0000E+00  0.3631E+00  0.4686E-01  0.0000E+00  0.0000E+00
REACH    5        0     4  0.4463E-01  0.2324E-02  0.2323E-02  0.5812E-06  0.0000E+00  0.5694E-01  0.5694E-01  0.9926E+00  0.1063E+00  0.1063E+00  0.2296E-01  0.2295E-01  0.1184E+00  0.1184E+00  0.0000E+00  0.1928E-03  0.0000E+00  0.0000E+00  0.6097E-02  0.6111E-02  0.5225E-03  0.5116E-03  0.7016E+01  0.6997E+01  0.4591E+02  0.3946E+02  0.0000E+00  0.0000E+00  0.0000E+00  0.0000E+00  0.0000E+00  0.0000E+00  0.0000E+00  0.0000E+00  0.0000E+00  0.0000E+00  0.0000E+00  0.0000E+00  0.0000E+00  0.0000E+00  0.0000E+00  0.0000E+00  0.0000E+00  0.2249E+00  0.2906E-01  0.0000E+00  0.0000E+00
REACH    6        0     4  0.8526E-01  0.4146E-02  0.4143E-02  0.3622E-05  0.0000E+00  0.1007E+00  0.1007E+00  0.9409E+00  0.2536E+00  0.2533E+00  0.5483E-01  0.5474E-01  0.2405E+00  0.2404E+00  0.0000E+00  0.1271E-02  0.0000E+00  0.0000E+00  0.1290E-01  0.1298E-01  0.1769E-02  0.1681E-02  0.1548E+02  0.1538E+02  0.8042E+02  0.6806E+02  0.0000E+00  0.0000E+00  0.0000E+00  0.0000E+00  0.0000E+00  0.0000E+00  0.0000E+00  0.0000E+00  0.0000E+00  0.0000E+00  0.0000E+00  0.0000E+00  0.0000E+00  0.0000E+00  0.0000E+00  0.0000E+00  0.0000E+00  0.4949E+00  0.6772E-01  0.0000E+00  0.0000E+00
REACH    7        0     4  0.1545E+00  0.8071E-02  0.8068E-02  0.2348E-05  0.0000E+00  0.2039E+00  0.3413E+01  0.6501E+02  0.4120E+00  0.4118E+00  0.8939E-01  0.8933E-01  0.4362E+00  0.4361E+00  0.6159E-03  0.1478E-02  0.0000E+00  0.1062E-04  0.1798E-01  0.1804E-01  0.2175E-02  0.2140E-02  0.2713E+02  0.2706E+02  0.1408E+03  0.1343E+03  0.0000E+00  0.0000E+00  0.0000E+00  0.0000E+00  0.0000E+00  0.0000E+00  0.0000E+00  0.0000E+00  0.0000E+00  0.0000E+00  0.0000E+00  0.0000E+00  0.0000E+00  0.0000E+00  0.0000E+00  0.0000E+00  0.0000E+00  0.8493E+00  0.1074E+00  0.0000E+00  0.0000E+00
REACH    8        0     4  0.2618E+00  0.1374E-01  0.1374E-01  0.4200E-05  0.0000E+00  0.4053E+01  0.5445E+01  0.6159E+02  0.9734E+00  0.9728E+00  0.2135E+00  0.2133E+00  0.7451E+00  0.7449E+00  0.2215E-02  0.3970E-02  0.1062E-04  0.3049E-04  0.2725E-01  0.2742E-01  0.1357E-01  0.1329E-01  0.1846E+03  0.1839E+03  0.2332E+03  0.1231E+03  0.0000E+00  0.0000E+00  0.0000E+00  0.0000E+00  0.0000E+00  0.0000E+00  0.0000E+00  0.0000E+00  0.0000E+00  0.0000E+00  0.0000E+00  0.0000E+00  0.0000E+00  0.0000E+00  0.0000E+00  0.0000E+00  0.0000E+00  0.1722E+01  0.2407E+00  0.0000E+00  0.0000E+00
REACH    9        0     4  0.3682E+00  0.1918E-01  0.1917E-01  0.5258E-05  0.0000E+00  0.5584E+01  0.1182E+02  0.7731E+02  0.1250E+01  0.1249E+01  0.2731E+00  0.2729E+00  0.1036E+01  0.1035E+01  0.4745E-02  0.7083E-02  0.3049E-04  0.6496E-04  0.4068E-01  0.4084E-01  0.1490E-01  0.1468E-01  0.2022E+03  0.2016E+03  0.2158E+03  0.2002E+03  0.0000E+00  0.0000E+00  0.0000E+00  0.0000E+00  0.0000E+00  0.0000E+00  0.0000E+00  0.0000E+00  0.0000E+00  0.0000E+00  0.0000E+00  0.0000E+00  0.0000E+00  0.0000E+00  0.0000E+00  0.0000E+00  0.0000E+00  0.2292E+01  0.3138E+00  0.0000E+00  0.0000E+00
REACH   10        0     4  0.4236E+00  0.2195E-01  0.2195E-01  0.3241E-05  0.0000E+00  0.1188E+02  0.9255E+01  0.7057E+02  0.1382E+01  0.1382E+01  0.3015E+00  0.3014E+00  0.1172E+01  0.1172E+01  0.7276E-02  0.8680E-02  0.6496E-04  0.8288E-04  0.5179E-01  0.5194E-01  0.1567E-01  0.1552E-01  0.2097E+03  0.2093E+03  0.2488E+03  0.2430E+03  0.0000E+00  0.0000E+00  0.0000E+00  0.0000E+00  0.0000E+00  0.0000E+00  0.0000E+00  0.0000E+00  0.0000E+00  0.0000E+00  0.0000E+00  0.0000E+00  0.0000E+00  0.0000E+00  0.0000E+00  0.0000E+00  0.0000E+00  0.2562E+01  0.3533E+00  0.0000E+00  0.0000E+00
REACH   11        0     4  0.5356E+00  0.2732E-01  0.2731E-01  0.1382E-05  0.0000E+00  0.9373E+01  0.8244E+01  0.5408E+02  0.1715E+01  0.1714E+01  0.3731E+00  0.3731E+00  0.1467E+01  0.1467E+01  0.9951E-02  0.1061E-01  0.8288E-04  0.8992E-04  0.8219E-01  0.8227E-01  0.1833E-01  0.1827E-01  0.2279E+03  0.2277E+03  0.3352E+03  0.3254E+03  0.0000E+00  0.0000E+00  0.0000E+00  0.0000E+00  0.0000E+00  0.0000E+00  0.0000E+00  0.0000E+00  0.0000E+00  0.0000E+00  0.0000E+00  0.0000E+00  0.0000E+00  0.0000E+00  0.0000E+00  0.0000E+00  0.0000E+00  0.3192E+01  0.4553E+00  0.0000E+00  0.0000E+00
REACH    1        0     5  0.7264E-01  0.2148E-02  0.2147E-02  0.1674E-05  0.0000E+00  0.6309E-02  0.6309E-02  0.1658E+00  0.1083E-01  0.1083E-01  0.2347E-02  0.2345E-02  0.3925E+00  0.3923E+00  0.0000E+00  0.6174E-03  0.0000E+00  0.0000E+00  0.3822E-03  0.3859E-03  0.4694E-05  0.4518E-05  0.2309E+00  0.2302E+00  0.4756E+02  0.4608E+02  0.0000E+00  0.0000E+00  0.0000E+00  0.0000E+00  0.0000E+00  0.0000E+00  0.0000E+00  0.0000E+00  0.0000E+00  0.0000E+00  0.0000E+00  0.0000E+00  0.0000E+00  0.0000E+00  0.0000E+00  0.0000E+00  0.0000E+00  0.4037E+00  0.2731E-02  0.0000E+00  0.0000E+00
REACH    2        0     5  0.8475E-01  0.2475E-02  0.2474E-02  0.1726E-05  0.0000E+00  0.7704E-02  0.7704E-02  0.1746E+00  0.1368E-01  0.1368E-01  0.2966E-02  0.2964E-02  0.4560E+00  0.4557E+00  0.0000E+00  0.6532E-03  0.0000E+00  0.0000E+00  0.5041E-03  0.5079E-03  0.6909E-05  0.6684E-05  0.3058E+00  0.3049E+00  0.5478E+02  0.5304E+02  0.0000E+00  0.0000E+00  0.0000E+00  0.0000E+00  0.0000E+00  0.0000E+00  0.0000E+00  0.0000E+00  0.0000E+00  0.0000E+00  0.0000E+00  0.0000E+00  0.0000E+00  0.0000E+00  0.0000E+00  0.0000E+00  0.0000E+00  0.4701E+00  0.3471E-02  0.0000E+00  0.0000E+00
REACH    3        0     5  0.4248E-01  0.1213E-02  0.1212E-02  0.5521E-06  0.0000E+00  0.3847E-02  0.3847E-02  0.1755E+00  0.7863E-02  0.7861E-02  0.1704E-02  0.1703E-02  0.2287E+00  0.2286E+00  0.0000E+00  0.1868E-03  0.0000E+00  0.0000E+00  0.3120E-03  0.3130E-03  0.5228E-05  0.5129E-05  0.1764E+00  0.1762E+00  0.2682E+02  0.2595E+02  0.0000E+00  0.0000E+00  0.0000E+00  0.0000E+00  0.0000E+00  0.0000E+00  0.0000E+00  0.0000E+00  0.0000E+00  0.0000E+00  0.0000E+00  0.0000E+00  0.0000E+00  0.0000E+00  0.0000E+00  0.0000E+00  0.0000E+00  0.2367E+00  0.2016E-02  0.0000E+00  0.0000E+00
REACH    4        0     5  0.6813E-01  0.1981E-02  0.1980E-02  0.8584E-06  0.0000E+00  0.5656E-02  0.5656E-02  0.1604E+00  0.1055E-01  0.1054E-01  0.2293E-02  0.2291E-02  0.3485E+00  0.3483E+00  0.0000E+00  0.3162E-03  0.0000E+00  0.0000E+00  0.5989E-03  0.6008E-03  0.8707E-05  0.8527E-05  0.2218E+00  0.2214E+00  0.4386E+02  0.4250E+02  0.0000E+00  0.0000E+00  0.0000E+00  0.0000E+00  0.0000E+00  0.0000E+00  0.0000E+00  0.0000E+00  0.0000E+00  0.0000E+00  0.0000E+00  0.0000E+00  0.0000E+00  0.0000E+00  0.0000E+00  0.0000E+00  0.0000E+00  0.3592E+00  0.2892E-02  0.0000E+00  0.0000E+00
REACH    5        0     5  0.4463E-01  0.1297E-02  0.1296E-02  0.4622E-06  0.0000E+00  0.3191E-02  0.3191E-02  0.1441E+00  0.6172E-02  0.6169E-02  0.1332E-02  0.1331E-02  0.2265E+00  0.2264E+00  0.0000E+00  0.1406E-03  0.0000E+00  0.0000E+00  0.4602E-03  0.4628E-03  0.4318E-05  0.4246E-05  0.1132E+00  0.1130E+00  0.2873E+02  0.2787E+02  0.0000E+00  0.0000E+00  0.0000E+00  0.0000E+00  0.0000E+00  0.0000E+00  0.0000E+00  0.0000E+00  0.0000E+00  0.0000E+00  0.0000E+00  0.0000E+00  0.0000E+00  0.0000E+00  0.0000E+00  0.0000E+00  0.0000E+00  0.2327E+00  0.1793E-02  0.0000E+00  0.0000E+00
REACH    6        0     5  0.8526E-01  0.2222E-02  0.2219E-02  0.2713E-05  0.0000E+00  0.1023E-01  0.1023E-01  0.2514E+00  0.2550E-01  0.2548E-01  0.5517E-02  0.5511E-02  0.4083E+00  0.4079E+00  0.0000E+00  0.1028E-02  0.0000E+00  0.0000E+00  0.1208E-02  0.1220E-02  0.3774E-04  0.3563E-04  0.7028E+00  0.6994E+00  0.4887E+02  0.4693E+02  0.0000E+00  0.0000E+00  0.0000E+00  0.0000E+00  0.0000E+00  0.0000E+00  0.0000E+00  0.0000E+00  0.0000E+00  0.0000E+00  0.0000E+00  0.0000E+00  0.0000E+00  0.0000E+00  0.0000E+00  0.0000E+00  0.0000E+00  0.4344E+00  0.6731E-02  0.0000E+00  0.0000E+00
REACH    7        0     5  0.1545E+00  0.4402E-02  0.4400E-02  0.1833E-05  0.0000E+00  0.1376E-01  0.1859E+01  0.8568E+02  0.2786E-01  0.2786E-01  0.6044E-02  0.6041E-02  0.8003E+00  0.8000E+00  0.5031E-03  0.1228E-02  0.0000E+00  0.1351E-05  0.1382E-02  0.1386E-02  0.2217E-04  0.2175E-04  0.6263E+00  0.6251E+00  0.9516E+02  0.9423E+02  0.0000E+00  0.0000E+00  0.0000E+00  0.0000E+00  0.0000E+00  0.0000E+00  0.0000E+00  0.0000E+00  0.0000E+00  0.0000E+00  0.0000E+00  0.0000E+00  0.0000E+00  0.0000E+00  0.0000E+00  0.0000E+00  0.0000E+00  0.8291E+00  0.7427E-02  0.0000E+00  0.0000E+00
REACH    8        0     5  0.2618E+00  0.7529E-02  0.7526E-02  0.3322E-05  0.0000E+00  0.1959E+01  0.3444E+01  0.8843E+02  0.9676E-01  0.9672E-01  0.2142E-01  0.2141E-01  0.1377E+01  0.1376E+01  0.1845E-02  0.3212E-02  0.1351E-05  0.4977E-05  0.2094E-02  0.2117E-02  0.1387E-02  0.1336E-02  0.2409E+02  0.2402E+02  0.1619E+03  0.1336E+03  0.0000E+00  0.0000E+00  0.0000E+00  0.0000E+00  0.0000E+00  0.0000E+00  0.0000E+00  0.0000E+00  0.0000E+00  0.0000E+00  0.0000E+00  0.0000E+00  0.0000E+00  0.0000E+00  0.0000E+00  0.0000E+00  0.0000E+00  0.1476E+01  0.2352E-01  0.0000E+00  0.0000E+00
REACH    9        0     5  0.3682E+00  0.1056E-01  0.1055E-01  0.4938E-05  0.0000E+00  0.3453E+01  0.4958E+01  0.9481E+02  0.1147E+00  0.1147E+00  0.2529E-01  0.2527E-01  0.1918E+01  0.1918E+01  0.3865E-02  0.5927E-02  0.4977E-05  0.1479E-04  0.3070E-02  0.3121E-02  0.1352E-02  0.1300E-02  0.2440E+02  0.2431E+02  0.1990E+03  0.1963E+03  0.0000E+00  0.0000E+00  0.0000E+00  0.0000E+00  0.0000E+00  0.0000E+00  0.0000E+00  0.0000E+00  0.0000E+00  0.0000E+00  0.0000E+00  0.0000E+00  0.0000E+00  0.0000E+00  0.0000E+00  0.0000E+00  0.0000E+00  0.2038E+01  0.2839E-01  0.0000E+00  0.0000E+00
REACH   10        0     5  0.4236E+00  0.1212E-01  0.1211E-01  0.2621E-05  0.0000E+00  0.4962E+01  0.5419E+01  0.9164E+02  0.1224E+00  0.1224E+00  0.2694E-01  0.2693E-01  0.2178E+01  0.2177E+01  0.6068E-02  0.7163E-02  0.1479E-04  0.2195E-04  0.3972E-02  0.4004E-02  0.1311E-02  0.1289E-02  0.2445E+02  0.2441E+02  0.2300E+03  0.2291E+03  0.0000E+00  0.0000E+00  0.0000E+00  0.0000E+00  0.0000E+00  0.0000E+00  0.0000E+00  0.0000E+00  0.0000E+00  0.0000E+00  0.0000E+00  0.0000E+00  0.0000E+00  0.0000E+00  0.0000E+00  0.0000E+00  0.0000E+00  0.2307E+01  0.3093E-01  0.0000E+00  0.0000E+00
REACH   11        0     5  0.5356E+00  0.1494E-01  0.1494E-01  0.1143E-05  0.0000E+00  0.5431E+01  0.4544E+01  0.6562E+02  0.1538E+00  0.1538E+00  0.3371E-01  0.3371E-01  0.2669E+01  0.2668E+01  0.8192E-02  0.8667E-02  0.2195E-04  0.2545E-04  0.6955E-02  0.6972E-02  0.1343E-02  0.1335E-02  0.2525E+02  0.2523E+02  0.2893E+03  0.2880E+03  0.0000E+00  0.0000E+00  0.0000E+00  0.0000E+00  0.0000E+00  0.0000E+00  0.0000E+00  0.0000E+00  0.0000E+00  0.0000E+00  0.0000E+00  0.0000E+00  0.0000E+00  0.0000E+00  0.0000E+00  0.0000E+00  0.0000E+00  0.2831E+01  0.4068E-01  0.0000E+00  0.0000E+00
REACH    1        0     6  0.7264E-01  0.6278E-02  0.6277E-02  0.1548E-05  0.0000E+00  0.1064E+01  0.1064E+01  0.4300E+01  0.1822E+01  0.1822E+01  0.3952E+00  0.3950E+00  0.1385E+01  0.1385E+01  0.0000E+00  0.1053E-02  0.0000E+00  0.0000E+00  0.2875E-01  0.2890E-01  0.3476E-01  0.3422E-01  0.2777E+03  0.2771E+03  0.7867E+02  0.4989E+02  0.0000E+00  0.0000E+00  0.0000E+00  0.0000E+00  0.0000E+00  0.0000E+00  0.0000E+00  0.0000E+00  0.0000E+00  0.0000E+00  0.0000E+00  0.0000E+00  0.0000E+00  0.0000E+00  0.0000E+00  0.0000E+00  0.0000E+00  0.3208E+01  0.4239E+00  0.0000E+00  0.0000E+00
REACH    2        0     6  0.8475E-01  0.7288E-02  0.7287E-02  0.1574E-05  0.0000E+00  0.1226E+01  0.1226E+01  0.4326E+01  0.2176E+01  0.2176E+01  0.4721E+00  0.4719E+00  0.1577E+01  0.1577E+01  0.0000E+00  0.1097E-02  0.0000E+00  0.0000E+00  0.3514E-01  0.3530E-01  0.4255E-01  0.4199E-01  0.3237E+03  0.3231E+03  0.9005E+02  0.5687E+02  0.0000E+00  0.0000E+00  0.0000E+00  0.0000E+00  0.0000E+00  0.0000E+00  0.0000E+00  0.0000E+00  0.0000E+00  0.0000E+00  0.0000E+00  0.0000E+00  0.0000E+00  0.0000E+00  0.0000E+00  0.0000E+00  0.0000E+00  0.3754E+01  0.5072E+00  0.0000E+00  0.0000E+00
REACH    3        0     6  0.4248E-01  0.3621E-02  0.3620E-02  0.5189E-06  0.0000E+00  0.5531E+00  0.5531E+00  0.4048E+01  0.1128E+01  0.1128E+01  0.2445E+00  0.2445E+00  0.7628E+00  0.7627E+00  0.0000E+00  0.3369E-03  0.0000E+00  0.0000E+00  0.1947E-01  0.1952E-01  0.2303E-01  0.2280E-01  0.1492E+03  0.1490E+03  0.4361E+02  0.2748E+02  0.0000E+00  0.0000E+00  0.0000E+00  0.0000E+00  0.0000E+00  0.0000E+00  0.0000E+00  0.0000E+00  0.0000E+00  0.0000E+00  0.0000E+00  0.0000E+00  0.0000E+00  0.0000E+00  0.0000E+00  0.0000E+00  0.0000E+00  0.1891E+01  0.2640E+00  0.0000E+00  0.0000E+00
REACH    4        0     6  0.6813E-01  0.5864E-02  0.5863E-02  0.8135E-06  0.0000E+00  0.9311E+00  0.9311E+00  0.4026E+01  0.1646E+01  0.1646E+01  0.3573E+00  0.3572E+00  0.1252E+01  0.1252E+01  0.0000E+00  0.6179E-03  0.0000E+00  0.0000E+00  0.3270E-01  0.3280E-01  0.3171E-01  0.3138E-01  0.2434E+03  0.2430E+03  0.7517E+02  0.4637E+02  0.0000E+00  0.0000E+00  0.0000E+00  0.0000E+00  0.0000E+00  0.0000E+00  0.0000E+00  0.0000E+00  0.0000E+00  0.0000E+00  0.0000E+00  0.0000E+00  0.0000E+00  0.0000E+00  0.0000E+00  0.0000E+00  0.0000E+00  0.2899E+01  0.3900E+00  0.0000E+00  0.0000E+00
REACH    5        0     6  0.4463E-01  0.3818E-02  0.3817E-02  0.5046E-06  0.0000E+00  0.5667E+00  0.5667E+00  0.3741E+01  0.1070E+01  0.1070E+01  0.2312E+00  0.2312E+00  0.8171E+00  0.8170E+00  0.0000E+00  0.2763E-03  0.0000E+00  0.0000E+00  0.2513E-01  0.2518E-01  0.2109E-01  0.2092E-01  0.1464E+03  0.1462E+03  0.4988E+02  0.3130E+02  0.0000E+00  0.0000E+00  0.0000E+00  0.0000E+00  0.0000E+00  0.0000E+00  0.0000E+00  0.0000E+00  0.0000E+00  0.0000E+00  0.0000E+00  0.0000E+00  0.0000E+00  0.0000E+00  0.0000E+00  0.0000E+00  0.0000E+00  0.1887E+01  0.2564E+00  0.0000E+00  0.0000E+00
REACH    6        0     6  0.8526E-01  0.7013E-02  0.7010E-02  0.2574E-05  0.0000E+00  0.1137E+01  0.1137E+01  0.4831E+01  0.2857E+01  0.2855E+01  0.6178E+00  0.6173E+00  0.1278E+01  0.1278E+01  0.0000E+00  0.2340E-02  0.0000E+00  0.0000E+00  0.5534E-01  0.5579E-01  0.6676E-01  0.6502E-01  0.3246E+03  0.3232E+03  0.7773E+02  0.4717E+02  0.0000E+00  0.0000E+00  0.0000E+00  0.0000E+00  0.0000E+00  0.0000E+00  0.0000E+00  0.0000E+00  0.0000E+00  0.0000E+00  0.0000E+00  0.0000E+00  0.0000E+00  0.0000E+00  0.0000E+00  0.0000E+00  0.0000E+00  0.4135E+01  0.6731E+00  0.0000E+00  0.0000E+00
REACH    7        0     6  0.1545E+00  0.1318E-01  0.1318E-01  0.1644E-05  0.0000E+00  0.2036E+01  0.8277E+01  0.1040E+03  0.4008E+01  0.4008E+01  0.8693E+00  0.8691E+00  0.2750E+01  0.2749E+01  0.9548E-03  0.2319E-02  0.0000E+00  0.7156E-06  0.7593E-01  0.7617E-01  0.8064E-01  0.7999E-01  0.5444E+03  0.5436E+03  0.1175E+03  0.1005E+03  0.0000E+00  0.0000E+00  0.0000E+00  0.0000E+00  0.0000E+00  0.0000E+00  0.0000E+00  0.0000E+00  0.0000E+00  0.0000E+00  0.0000E+00  0.0000E+00  0.0000E+00  0.0000E+00  0.0000E+00  0.0000E+00  0.0000E+00  0.6759E+01  0.9452E+00  0.0000E+00  0.0000E+00
REACH    8        0     6  0.2618E+00  0.2241E-01  0.2241E-01  0.2932E-05  0.0000E+00  0.1043E+02  0.1352E+02  0.1035E+03  0.7022E+01  0.7021E+01  0.1525E+01  0.1525E+01  0.4743E+01  0.4742E+01  0.3373E-02  0.6193E-02  0.7156E-06  0.2670E-05  0.1218E+00  0.1223E+00  0.1433E+00  0.1420E+00  0.1120E+04  0.1118E+04  0.1856E+03  0.1421E+03  0.0000E+00  0.0000E+00  0.0000E+00  0.0000E+00  0.0000E+00  0.0000E+00  0.0000E+00  0.0000E+00  0.0000E+00  0.0000E+00  0.0000E+00  0.0000E+00  0.0000E+00  0.0000E+00  0.0000E+00  0.0000E+00  0.0000E+00  0.1177E+02  0.1647E+01  0.0000E+00  0.0000E+00
REACH    9        0     6  0.3682E+00  0.3142E-01  0.3142E-01  0.4285E-05  0.0000E+00  0.1491E+02  0.2101E+02  0.1163E+03  0.9775E+01  0.9772E+01  0.2120E+01  0.2119E+01  0.6599E+01  0.6598E+01  0.7290E-02  0.1147E-01  0.2670E-05  0.8697E-05  0.1805E+00  0.1813E+00  0.1991E+00  0.1974E+00  0.1486E+04  0.1483E+04  0.2214E+03  0.2105E+03  0.0000E+00  0.0000E+00  0.0000E+00  0.0000E+00  0.0000E+00  0.0000E+00  0.0000E+00  0.0000E+00  0.0000E+00  0.0000E+00  0.0000E+00  0.0000E+00  0.0000E+00  0.0000E+00  0.0000E+00  0.0000E+00  0.0000E+00  0.1638E+02  0.2300E+01  0.0000E+00  0.0000E+00
REACH   10        0     6  0.4236E+00  0.3607E-01  0.3607E-01  0.2293E-05  0.0000E+00  0.2163E+02  0.2084E+02  0.1052E+03  0.1110E+02  0.1110E+02  0.2405E+01  0.2404E+01  0.7526E+01  0.7526E+01  0.1175E-01  0.1419E-01  0.8697E-05  0.1125E-04  0.2216E+00  0.2221E+00  0.2259E+00  0.2250E+00  0.1644E+04  0.1642E+04  0.2534E+03  0.2478E+03  0.0000E+00  0.0000E+00  0.0000E+00  0.0000E+00  0.0000E+00  0.0000E+00  0.0000E+00  0.0000E+00  0.0000E+00  0.0000E+00  0.0000E+00  0.0000E+00  0.0000E+00  0.0000E+00  0.0000E+00  0.0000E+00  0.0000E+00  0.1864E+02  0.2626E+01  0.0000E+00  0.0000E+00
REACH   11        0     6  0.5356E+00  0.4515E-01  0.4515E-01  0.9985E-06  0.0000E+00  0.2216E+02  0.1860E+02  0.7485E+02  0.1466E+02  0.1466E+02  0.3173E+01  0.3173E+01  0.9091E+01  0.9091E+01  0.1653E-01  0.1788E-01  0.1125E-04  0.1333E-04  0.3205E+00  0.3208E+00  0.3091E+00  0.3086E+00  0.2019E+04  0.2018E+04  0.3232E+03  0.3095E+03  0.0000E+00  0.0000E+00  0.0000E+00  0.0000E+00  0.0000E+00  0.0000E+00  0.0000E+00  0.0000E+00  0.0000E+00  0.0000E+00  0.0000E+00  0.0000E+00  0.0000E+00  0.0000E+00  0.0000E+00  0.0000E+00  0.0000E+00  0.2377E+02  0.3494E+01  0.0000E+00  0.0000E+00
REACH    1        0     7  0.7264E-01  0.4429E-02  0.4428E-02  0.1499E-05  0.0000E+00  0.2456E+00  0.2456E+00  0.5940E+01  0.4945E+00  0.4943E+00  0.1075E+00  0.1074E+00  0.1429E+01  0.1429E+01  0.0000E+00  0.7531E-03  0.0000E+00  0.0000E+00  0.4199E-02  0.4260E-02  0.7117E-03  0.6895E-03  0.1806E+02  0.1801E+02  0.9390E+02  0.7827E+02  0.0000E+00  0.0000E+00  0.0000E+00  0.0000E+00  0.0000E+00  0.0000E+00  0.0000E+00  0.0000E+00  0.0000E+00  0.0000E+00  0.0000E+00  0.0000E+00  0.0000E+00  0.0000E+00  0.0000E+00  0.0000E+00  0.0000E+00  0.1924E+01  0.1117E+00  0.0000E+00  0.0000E+00
REACH    2        0     7  0.8475E-01  0.5122E-02  0.5121E-02  0.1513E-05  0.0000E+00  0.3118E+00  0.3118E+00  0.6558E+01  0.6512E+00  0.6510E+00  0.1415E+00  0.1415E+00  0.1631E+01  0.1631E+01  0.0000E+00  0.7992E-03  0.0000E+00  0.0000E+00  0.5644E-02  0.5713E-02  0.1127E-02  0.1097E-02  0.2508E+02  0.2502E+02  0.1076E+03  0.8774E+02  0.0000E+00  0.0000E+00  0.0000E+00  0.0000E+00  0.0000E+00  0.0000E+00  0.0000E+00  0.0000E+00  0.0000E+00  0.0000E+00  0.0000E+00  0.0000E+00  0.0000E+00  0.0000E+00  0.0000E+00  0.0000E+00  0.0000E+00  0.2283E+01  0.1472E+00  0.0000E+00  0.0000E+00
REACH    3        0     7  0.4248E-01  0.2523E-02  0.2523E-02  0.6008E-06  0.0000E+00  0.1662E+00  0.1662E+00  0.7190E+01  0.3999E+00  0.3997E+00  0.8681E-01  0.8677E-01  0.7829E+00  0.7828E+00  0.0000E+00  0.2587E-03  0.0000E+00  0.0000E+00  0.3596E-02  0.3625E-02  0.9448E-03  0.9267E-03  0.1558E+02  0.1555E+02  0.5209E+02  0.4130E+02  0.0000E+00  0.0000E+00  0.0000E+00  0.0000E+00  0.0000E+00  0.0000E+00  0.0000E+00  0.0000E+00  0.0000E+00  0.0000E+00  0.0000E+00  0.0000E+00  0.0000E+00  0.0000E+00  0.0000E+00  0.0000E+00  0.0000E+00  0.1183E+01  0.9039E-01  0.0000E+00  0.0000E+00
REACH    4        0     7  0.6813E-01  0.4136E-02  0.4135E-02  0.7731E-06  0.0000E+00  0.2185E+00  0.2185E+00  0.5640E+01  0.4650E+00  0.4649E+00  0.1012E+00  0.1012E+00  0.1331E+01  0.1331E+01  0.0000E+00  0.3901E-03  0.0000E+00  0.0000E+00  0.6513E-02  0.6550E-02  0.8734E-03  0.8580E-03  0.1653E+02  0.1650E+02  0.8756E+02  0.7320E+02  0.0000E+00  0.0000E+00  0.0000E+00  0.0000E+00  0.0000E+00  0.0000E+00  0.0000E+00  0.0000E+00  0.0000E+00  0.0000E+00  0.0000E+00  0.0000E+00  0.0000E+00  0.0000E+00  0.0000E+00  0.0000E+00  0.0000E+00  0.1796E+01  0.1077E+00  0.0000E+00  0.0000E+00
REACH    5        0     7  0.4463E-01  0.2686E-02  0.2685E-02  0.6812E-06  0.0000E+00  0.1160E+00  0.1160E+00  0.4726E+01  0.2440E+00  0.2439E+00  0.5294E-01  0.5289E-01  0.8641E+00  0.8639E+00  0.0000E+00  0.2424E-03  0.0000E+00  0.0000E+00  0.3110E-02  0.3143E-02  0.2934E-03  0.2847E-03  0.7746E+01  0.7722E+01  0.5773E+02  0.4998E+02  0.0000E+00  0.0000E+00  0.0000E+00  0.0000E+00  0.0000E+00  0.0000E+00  0.0000E+00  0.0000E+00  0.0000E+00  0.0000E+00  0.0000E+00  0.0000E+00  0.0000E+00  0.0000E+00  0.0000E+00  0.0000E+00  0.0000E+00  0.1108E+01  0.5604E-01  0.0000E+00  0.0000E+00
REACH    6        0     7  0.8526E-01  0.4920E-02  0.4918E-02  0.2573E-05  0.0000E+00  0.4641E+00  0.4641E+00  0.1059E+02  0.1313E+01  0.1312E+01  0.2846E+00  0.2843E+00  0.1554E+01  0.1553E+01  0.0000E+00  0.1672E-02  0.0000E+00  0.0000E+00  0.1089E-01  0.1114E-01  0.5599E-02  0.5338E-02  0.5900E+02  0.5874E+02  0.9724E+02  0.7097E+02  0.0000E+00  0.0000E+00  0.0000E+00  0.0000E+00  0.0000E+00  0.0000E+00  0.0000E+00  0.0000E+00  0.0000E+00  0.0000E+00  0.0000E+00  0.0000E+00  0.0000E+00  0.0000E+00  0.0000E+00  0.0000E+00  0.0000E+00  0.2866E+01  0.2955E+00  0.0000E+00  0.0000E+00
REACH    7        0     7  0.1545E+00  0.9215E-02  0.9214E-02  0.1598E-05  0.0000E+00  0.5807E+00  0.5157E+01  0.1253E+03  0.1384E+01  0.1383E+01  0.3006E+00  0.3005E+00  0.2882E+01  0.2881E+01  0.6488E-03  0.1607E-02  0.0000E+00  0.2192E-06  0.1556E-01  0.1568E-01  0.3495E-02  0.3438E-02  0.5350E+02  0.5340E+02  0.1661E+03  0.1524E+03  0.0000E+00  0.0000E+00  0.0000E+00  0.0000E+00  0.0000E+00  0.0000E+00  0.0000E+00  0.0000E+00  0.0000E+00  0.0000E+00  0.0000E+00  0.0000E+00  0.0000E+00  0.0000E+00  0.0000E+00  0.0000E+00  0.0000E+00  0.4266E+01  0.3162E+00  0.0000E+00  0.0000E+00
REACH    8        0     7  0.2618E+00  0.1569E-01  0.1569E-01  0.2833E-05  0.0000E+00  0.5773E+01  0.8792E+01  0.1304E+03  0.2298E+01  0.2298E+01  0.5000E+00  0.4998E+00  0.4943E+01  0.4943E+01  0.2360E-02  0.4184E-02  0.2192E-06  0.8321E-06  0.2317E-01  0.2340E-01  0.7324E-02  0.7179E-02  0.1452E+03  0.1448E+03  0.2726E+03  0.2234E+03  0.0000E+00  0.0000E+00  0.0000E+00  0.0000E+00  0.0000E+00  0.0000E+00  0.0000E+00  0.0000E+00  0.0000E+00  0.0000E+00  0.0000E+00  0.0000E+00  0.0000E+00  0.0000E+00  0.0000E+00  0.0000E+00  0.0000E+00  0.7244E+01  0.5232E+00  0.0000E+00  0.0000E+00
REACH    9        0     7  0.3682E+00  0.2197E-01  0.2196E-01  0.4116E-05  0.0000E+00  0.9149E+01  0.1379E+02  0.1472E+03  0.3099E+01  0.3098E+01  0.6736E+00  0.6733E+00  0.6887E+01  0.6886E+01  0.4983E-02  0.7663E-02  0.8321E-06  0.2976E-05  0.3135E-01  0.3167E-01  0.8712E-02  0.8536E-02  0.1747E+03  0.1742E+03  0.3356E+03  0.3284E+03  0.0000E+00  0.0000E+00  0.0000E+00  0.0000E+00  0.0000E+00  0.0000E+00  0.0000E+00  0.0000E+00  0.0000E+00  0.0000E+00  0.0000E+00  0.0000E+00  0.0000E+00  0.0000E+00  0.0000E+00  0.0000E+00  0.0000E+00  0.9992E+01  0.7050E+00  0.0000E+00  0.0000E+00
REACH   10        0     7  0.4236E+00  0.2519E-01  0.2519E-01  0.2232E-05  0.0000E+00  0.1392E+02  0.1349E+02  0.1280E+03  0.3385E+01  0.3385E+01  0.7354E+00  0.7352E+00  0.7881E+01  0.7880E+01  0.7906E-02  0.9399E-02  0.2976E-05  0.5083E-05  0.3611E-01  0.3631E-01  0.9109E-02  0.9022E-02  0.1829E+03  0.1827E+03  0.3901E+03  0.3862E+03  0.0000E+00  0.0000E+00  0.0000E+00  0.0000E+00  0.0000E+00  0.0000E+00  0.0000E+00  0.0000E+00  0.0000E+00  0.0000E+00  0.0000E+00  0.0000E+00  0.0000E+00  0.0000E+00  0.0000E+00  0.0000E+00  0.0000E+00  0.1127E+02  0.7715E+00  0.0000E+00  0.0000E+00
REACH   11        0     7  0.5356E+00  0.3151E-01  0.3151E-01  0.1194E-05  0.0000E+00  0.1402E+02  0.1076E+02  0.9097E+02  0.4950E+01  0.4949E+01  0.1074E+01  0.1074E+01  0.9839E+01  0.9839E+01  0.1107E-01  0.1197E-01  0.5083E-05  0.5761E-05  0.5589E-01  0.5606E-01  0.1563E-01  0.1556E-01  0.2500E+03  0.2498E+03  0.4865E+03  0.4780E+03  0.0000E+00  0.0000E+00  0.0000E+00  0.0000E+00  0.0000E+00  0.0000E+00  0.0000E+00  0.0000E+00  0.0000E+00  0.0000E+00  0.0000E+00  0.0000E+00  0.0000E+00  0.0000E+00  0.0000E+00  0.0000E+00  0.0000E+00  0.1480E+02  0.1130E+01  0.0000E+00  0.0000E+00
REACH    1        0     8  0.7264E-01  0.1027E-01  0.1026E-01  0.2767E-05  0.0000E+00  0.7175E+01  0.7175E+01  0.5554E+02  0.1432E+02  0.1431E+02  0.3115E+01  0.3113E+01  0.1538E+01  0.1538E+01  0.0000E+00  0.5703E-02  0.0000E+00  0.0000E+00  0.4271E-01  0.4451E-01  0.2352E+00  0.2291E+00  0.1742E+04  0.1736E+04  0.1629E+03  0.1072E+03  0.0000E+00  0.0000E+00  0.0000E+00  0.0000E+00  0.0000E+00  0.0000E+00  0.0000E+00  0.0000E+00  0.0000E+00  0.0000E+00  0.0000E+00  0.0000E+00  0.0000E+00  0.0000E+00  0.0000E+00  0.0000E+00  0.0000E+00  0.1585E+02  0.3157E+01  0.0000E+00  0.0000E+00
REACH    2        0     8  0.8475E-01  0.1201E-01  0.1201E-01  0.2738E-05  0.0000E+00  0.8392E+01  0.8392E+01  0.5579E+02  0.1737E+02  0.1736E+02  0.3779E+01  0.3776E+01  0.1866E+01  0.1865E+01  0.0000E+00  0.5899E-02  0.0000E+00  0.0000E+00  0.5322E-01  0.5508E-01  0.2989E+00  0.2923E+00  0.2088E+04  0.2082E+04  0.1881E+03  0.1237E+03  0.0000E+00  0.0000E+00  0.0000E+00  0.0000E+00  0.0000E+00  0.0000E+00  0.0000E+00  0.0000E+00  0.0000E+00  0.0000E+00  0.0000E+00  0.0000E+00  0.0000E+00  0.0000E+00  0.0000E+00  0.0000E+00  0.0000E+00  0.1923E+02  0.3831E+01  0.0000E+00  0.0000E+00
REACH    3        0     8  0.4248E-01  0.6046E-02  0.6045E-02  0.9335E-06  0.0000E+00  0.3868E+01  0.3868E+01  0.5114E+02  0.9178E+01  0.9175E+01  0.1994E+01  0.1993E+01  0.1008E+01  0.1008E+01  0.0000E+00  0.1981E-02  0.0000E+00  0.0000E+00  0.2978E-01  0.3041E-01  0.1646E+00  0.1620E+00  0.9852E+03  0.9833E+03  0.9247E+02  0.6041E+02  0.0000E+00  0.0000E+00  0.0000E+00  0.0000E+00  0.0000E+00  0.0000E+00  0.0000E+00  0.0000E+00  0.0000E+00  0.0000E+00  0.0000E+00  0.0000E+00  0.0000E+00  0.0000E+00  0.0000E+00  0.0000E+00  0.0000E+00  0.1019E+02  0.2023E+01  0.0000E+00  0.0000E+00
REACH    4        0     8  0.6813E-01  0.9633E-02  0.9631E-02  0.1427E-05  0.0000E+00  0.6284E+01  0.6284E+01  0.5172E+02  0.1294E+02  0.1294E+02  0.2818E+01  0.2816E+01  0.1460E+01  0.1459E+01  0.0000E+00  0.2886E-02  0.0000E+00  0.0000E+00  0.5166E-01  0.5257E-01  0.2156E+00  0.2125E+00  0.1530E+04  0.1528E+04  0.1524E+03  0.1003E+03  0.0000E+00  0.0000E+00  0.0000E+00  0.0000E+00  0.0000E+00  0.0000E+00  0.0000E+00  0.0000E+00  0.0000E+00  0.0000E+00  0.0000E+00  0.0000E+00  0.0000E+00  0.0000E+00  0.0000E+00  0.0000E+00  0.0000E+00  0.1440E+02  0.2869E+01  0.0000E+00  0.0000E+00
REACH    5        0     8  0.4463E-01  0.6188E-02  0.6187E-02  0.7261E-06  0.0000E+00  0.3692E+01  0.3692E+01  0.4800E+02  0.7883E+01  0.7881E+01  0.1710E+01  0.1710E+01  0.9079E+00  0.9078E+00  0.0000E+00  0.1362E-02  0.0000E+00  0.0000E+00  0.3273E-01  0.3316E-01  0.1234E+00  0.1220E+00  0.8725E+03  0.8712E+03  0.1014E+03  0.6791E+02  0.0000E+00  0.0000E+00  0.0000E+00  0.0000E+00  0.0000E+00  0.0000E+00  0.0000E+00  0.0000E+00  0.0000E+00  0.0000E+00  0.0000E+00  0.0000E+00  0.0000E+00  0.0000E+00  0.0000E+00  0.0000E+00  0.0000E+00  0.8790E+01  0.1743E+01  0.0000E+00  0.0000E+00
REACH    6        0     8  0.8526E-01  0.1185E-01  0.1185E-01  0.4585E-05  0.0000E+00  0.7160E+01  0.7160E+01  0.4992E+02  0.2055E+02  0.2053E+02  0.4452E+01  0.4446E+01  0.2154E+01  0.2153E+01  0.0000E+00  0.1316E-01  0.0000E+00  0.0000E+00  0.7143E-01  0.7569E-01  0.3777E+00  0.3630E+00  0.1843E+04  0.1833E+04  0.1817E+03  0.1191E+03  0.0000E+00  0.0000E+00  0.0000E+00  0.0000E+00  0.0000E+00  0.0000E+00  0.0000E+00  0.0000E+00  0.0000E+00  0.0000E+00  0.0000E+00  0.0000E+00  0.0000E+00  0.0000E+00  0.0000E+00  0.0000E+00  0.0000E+00  0.2270E+02  0.4521E+01  0.0000E+00  0.0000E+00
REACH    7        0     8  0.1545E+00  0.2194E-01  0.2194E-01  0.2656E-05  0.0000E+00  0.1392E+02  0.1269E+02  0.1345E+03  0.3191E+02  0.3190E+02  0.6937E+01  0.6934E+01  0.3598E+01  0.3597E+01  0.4867E-02  0.1180E-01  0.0000E+00  0.4956E-06  0.1195E+00  0.1218E+00  0.5528E+00  0.5463E+00  0.3477E+04  0.3470E+04  0.2557E+03  0.2215E+03  0.0000E+00  0.0000E+00  0.0000E+00  0.0000E+00  0.0000E+00  0.0000E+00  0.0000E+00  0.0000E+00  0.0000E+00  0.0000E+00  0.0000E+00  0.0000E+00  0.0000E+00  0.0000E+00  0.0000E+00  0.0000E+00  0.0000E+00  0.3551E+02  0.7056E+01  0.0000E+00  0.0000E+00
REACH    8        0     8  0.2618E+00  0.3714E-01  0.3713E-01  0.4945E-05  0.0000E+00  0.2365E+02  0.2042E+02  0.1360E+03  0.5378E+02  0.5376E+02  0.1169E+02  0.1169E+02  0.5965E+01  0.5964E+01  0.1750E-01  0.3322E-01  0.4956E-06  0.1791E-05  0.1918E+00  0.1970E+00  0.9153E+00  0.9036E+00  0.6185E+04  0.6168E+04  0.4035E+03  0.3551E+03  0.0000E+00  0.0000E+00  0.0000E+00  0.0000E+00  0.0000E+00  0.0000E+00  0.0000E+00  0.0000E+00  0.0000E+00  0.0000E+00  0.0000E+00  0.0000E+00  0.0000E+00  0.0000E+00  0.0000E+00  0.0000E+00  0.0000E+00  0.5976E+02  0.1188E+02  0.0000E+00  0.0000E+00
REACH    9        0     8  0.3682E+00  0.5194E-01  0.5194E-01  0.6752E-05  0.0000E+00  0.2979E+02  0.3124E+02  0.1491E+03  0.7483E+02  0.7480E+02  0.1625E+02  0.1624E+02  0.8283E+01  0.8282E+01  0.3912E-01  0.6278E-01  0.1791E-05  0.5162E-05  0.2767E+00  0.2845E+00  0.1265E+01  0.1249E+01  0.8497E+04  0.8472E+04  0.5246E+03  0.5096E+03  0.0000E+00  0.0000E+00  0.0000E+00  0.0000E+00  0.0000E+00  0.0000E+00  0.0000E+00  0.0000E+00  0.0000E+00  0.0000E+00  0.0000E+00  0.0000E+00  0.0000E+00  0.0000E+00  0.0000E+00  0.0000E+00  0.0000E+00  0.8314E+02  0.1653E+02  0.0000E+00  0.0000E+00
REACH   10        0     8  0.4236E+00  0.5943E-01  0.5942E-01  0.3573E-05  0.0000E+00  0.3522E+02  0.3427E+02  0.1401E+03  0.8412E+02  0.8410E+02  0.1826E+02  0.1825E+02  0.9360E+01  0.9359E+01  0.6414E-01  0.7671E-01  0.5162E-05  0.6598E-05  0.3328E+00  0.3369E+00  0.1400E+01  0.1392E+01  0.9414E+04  0.9401E+04  0.5994E+03  0.5925E+03  0.0000E+00  0.0000E+00  0.0000E+00  0.0000E+00  0.0000E+00  0.0000E+00  0.0000E+00  0.0000E+00  0.0000E+00  0.0000E+00  0.0000E+00  0.0000E+00  0.0000E+00  0.0000E+00  0.0000E+00  0.0000E+00  0.0000E+00  0.9354E+02  0.1859E+02  0.0000E+00  0.0000E+00
REACH   11        0     8  0.5356E+00  0.7474E-01  0.7474E-01  0.1652E-05  0.0000E+00  0.4243E+02  0.2900E+02  0.9680E+02  0.1089E+03  0.1089E+03  0.2361E+02  0.2361E+02  0.1204E+02  0.1204E+02  0.8987E-01  0.9803E-01  0.6598E-05  0.7871E-05  0.4662E+00  0.4689E+00  0.1837E+01  0.1833E+01  0.1149E+05  0.1148E+05  0.7697E+03  0.7503E+03  0.0000E+00  0.0000E+00  0.0000E+00  0.0000E+00  0.0000E+00  0.0000E+00  0.0000E+00  0.0000E+00  0.0000E+00  0.0000E+00  0.0000E+00  0.0000E+00  0.0000E+00  0.0000E+00  0.0000E+00  0.0000E+00  0.0000E+00  0.1210E+03  0.2408E+02  0.0000E+00  0.0000E+00
REACH    1        0     9  0.7264E-01  0.2678E-02  0.2676E-02  0.2322E-05  0.0000E+00  0.2136E+01  0.2136E+01  0.4835E+02  0.3491E+01  0.3488E+01  0.7597E+00  0.7590E+00  0.3702E+00  0.3699E+00  0.0000E+00  0.1530E-02  0.0000E+00  0.0000E+00  0.4745E-02  0.5101E-02  0.3100E-01  0.3018E-01  0.3760E+03  0.3748E+03  0.4631E+02  0.2869E+02  0.0000E+00  0.0000E+00  0.0000E+00  0.0000E+00  0.0000E+00  0.0000E+00  0.0000E+00  0.0000E+00  0.0000E+00  0.0000E+00  0.0000E+00  0.0000E+00  0.0000E+00  0.0000E+00  0.0000E+00  0.0000E+00  0.0000E+00  0.3859E+01  0.7641E+00  0.0000E+00  0.0000E+00
REACH    2        0     9  0.8475E-01  0.3102E-02  0.3100E-02  0.2043E-05  0.0000E+00  0.2413E+01  0.2413E+01  0.4703E+02  0.4090E+01  0.4088E+01  0.8901E+00  0.8896E+00  0.4490E+00  0.4488E+00  0.0000E+00  0.1575E-02  0.0000E+00  0.0000E+00  0.5765E-02  0.6130E-02  0.3654E-01  0.3571E-01  0.4260E+03  0.4250E+03  0.5350E+02  0.3311E+02  0.0000E+00  0.0000E+00  0.0000E+00  0.0000E+00  0.0000E+00  0.0000E+00  0.0000E+00  0.0000E+00  0.0000E+00  0.0000E+00  0.0000E+00  0.0000E+00  0.0000E+00  0.0000E+00  0.0000E+00  0.0000E+00  0.0000E+00  0.4539E+01  0.8958E+00  0.0000E+00  0.0000E+00
REACH    3        0     9  0.4248E-01  0.1531E-02  0.1531E-02  0.6578E-06  0.0000E+00  0.1049E+01  0.1049E+01  0.4122E+02  0.2054E+01  0.2053E+01  0.4462E+00  0.4461E+00  0.2388E+00  0.2387E+00  0.0000E+00  0.4397E-03  0.0000E+00  0.0000E+00  0.3097E-02  0.3196E-02  0.1852E-01  0.1826E-01  0.1863E+03  0.1861E+03  0.2631E+02  0.1636E+02  0.0000E+00  0.0000E+00  0.0000E+00  0.0000E+00  0.0000E+00  0.0000E+00  0.0000E+00  0.0000E+00  0.0000E+00  0.0000E+00  0.0000E+00  0.0000E+00  0.0000E+00  0.0000E+00  0.0000E+00  0.0000E+00  0.0000E+00  0.2292E+01  0.4493E+00  0.0000E+00  0.0000E+00
REACH    4        0     9  0.6813E-01  0.2509E-02  0.2507E-02  0.1201E-05  0.0000E+00  0.1867E+01  0.1867E+01  0.4497E+02  0.3167E+01  0.3165E+01  0.6897E+00  0.6894E+00  0.3565E+00  0.3564E+00  0.0000E+00  0.7868E-03  0.0000E+00  0.0000E+00  0.6130E-02  0.6315E-02  0.2873E-01  0.2831E-01  0.3295E+03  0.3290E+03  0.4307E+02  0.2680E+02  0.0000E+00  0.0000E+00  0.0000E+00  0.0000E+00  0.0000E+00  0.0000E+00  0.0000E+00  0.0000E+00  0.0000E+00  0.0000E+00  0.0000E+00  0.0000E+00  0.0000E+00  0.0000E+00  0.0000E+00  0.0000E+00  0.0000E+00  0.3523E+01  0.6957E+00  0.0000E+00  0.0000E+00
REACH    5        0     9  0.4463E-01  0.1742E-02  0.1741E-02  0.5681E-06  0.0000E+00  0.1120E+01  0.1120E+01  0.4274E+02  0.1905E+01  0.1904E+01  0.4140E+00  0.4137E+00  0.2274E+00  0.2274E+00  0.0000E+00  0.5483E-03  0.0000E+00  0.0000E+00  0.3428E-02  0.3580E-02  0.1646E-01  0.1610E-01  0.1953E+03  0.1948E+03  0.3123E+02  0.2064E+02  0.0000E+00  0.0000E+00  0.0000E+00  0.0000E+00  0.0000E+00  0.0000E+00  0.0000E+00  0.0000E+00  0.0000E+00  0.0000E+00  0.0000E+00  0.0000E+00  0.0000E+00  0.0000E+00  0.0000E+00  0.0000E+00  0.0000E+00  0.2132E+01  0.4173E+00  0.0000E+00  0.0000E+00
REACH    6        0     9  0.8526E-01  0.3357E-02  0.3353E-02  0.3385E-05  0.0000E+00  0.1854E+01  0.1854E+01  0.3774E+02  0.4334E+01  0.4331E+01  0.9397E+00  0.9387E+00  0.5381E+00  0.5377E+00  0.0000E+00  0.2903E-02  0.0000E+00  0.0000E+00  0.6888E-02  0.7595E-02  0.3942E-01  0.3790E-01  0.3314E+03  0.3300E+03  0.5982E+02  0.4020E+02  0.0000E+00  0.0000E+00  0.0000E+00  0.0000E+00  0.0000E+00  0.0000E+00  0.0000E+00  0.0000E+00  0.0000E+00  0.0000E+00  0.0000E+00  0.0000E+00  0.0000E+00  0.0000E+00  0.0000E+00  0.0000E+00  0.0000E+00  0.4872E+01  0.9463E+00  0.0000E+00  0.0000E+00
REACH    7        0     9  0.1545E+00  0.5593E-02  0.5591E-02  0.2169E-05  0.0000E+00  0.3918E+01  0.2734E+01  0.8771E+02  0.7378E+01  0.7376E+01  0.1605E+01  0.1604E+01  0.8543E+00  0.8540E+00  0.1226E-02  0.3147E-02  0.0000E+00  0.2697E-05  0.1346E-01  0.1393E-01  0.6651E-01  0.6564E-01  0.6944E+03  0.6933E+03  0.6964E+02  0.5952E+02  0.0000E+00  0.0000E+00  0.0000E+00  0.0000E+00  0.0000E+00  0.0000E+00  0.0000E+00  0.0000E+00  0.0000E+00  0.0000E+00  0.0000E+00  0.0000E+00  0.0000E+00  0.0000E+00  0.0000E+00  0.0000E+00  0.0000E+00  0.8233E+01  0.1618E+01  0.0000E+00  0.0000E+00
REACH    8        0     9  0.2618E+00  0.9518E-02  0.9514E-02  0.3896E-05  0.0000E+00  0.5937E+01  0.4728E+01  0.9452E+02  0.1254E+02  0.1254E+02  0.2728E+01  0.2727E+01  0.1419E+01  0.1419E+01  0.4677E-02  0.8579E-02  0.2697E-05  0.7646E-05  0.2172E-01  0.2272E-01  0.1120E+00  0.1104E+00  0.1278E+04  0.1276E+04  0.1095E+03  0.9170E+02  0.0000E+00  0.0000E+00  0.0000E+00  0.0000E+00  0.0000E+00  0.0000E+00  0.0000E+00  0.0000E+00  0.0000E+00  0.0000E+00  0.0000E+00  0.0000E+00  0.0000E+00  0.0000E+00  0.0000E+00  0.0000E+00  0.0000E+00  0.1397E+02  0.2749E+01  0.0000E+00  0.0000E+00
REACH    9        0     9  0.3682E+00  0.1363E-01  0.1363E-01  0.5775E-05  0.0000E+00  0.7379E+01  0.7559E+01  0.1099E+03  0.1730E+02  0.1729E+02  0.3760E+01  0.3758E+01  0.2005E+01  0.2004E+01  0.1015E-01  0.1585E-01  0.7646E-05  0.1517E-04  0.3078E-01  0.3221E-01  0.1517E+00  0.1496E+00  0.1742E+04  0.1738E+04  0.1446E+03  0.1393E+03  0.0000E+00  0.0000E+00  0.0000E+00  0.0000E+00  0.0000E+00  0.0000E+00  0.0000E+00  0.0000E+00  0.0000E+00  0.0000E+00  0.0000E+00  0.0000E+00  0.0000E+00  0.0000E+00  0.0000E+00  0.0000E+00  0.0000E+00  0.1931E+02  0.3791E+01  0.0000E+00  0.0000E+00
REACH   10        0     9  0.4236E+00  0.1596E-01  0.1596E-01  0.3116E-05  0.0000E+00  0.8748E+01  0.7994E+01  0.1017E+03  0.1944E+02  0.1943E+02  0.4223E+01  0.4222E+01  0.2298E+01  0.2298E+01  0.1640E-01  0.1961E-01  0.1517E-04  0.1701E-04  0.3697E-01  0.3780E-01  0.1679E+00  0.1668E+00  0.1945E+04  0.1943E+04  0.1717E+03  0.1693E+03  0.0000E+00  0.0000E+00  0.0000E+00  0.0000E+00  0.0000E+00  0.0000E+00  0.0000E+00  0.0000E+00  0.0000E+00  0.0000E+00  0.0000E+00  0.0000E+00  0.0000E+00  0.0000E+00  0.0000E+00  0.0000E+00  0.0000E+00  0.2175E+02  0.4260E+01  0.0000E+00  0.0000E+00
REACH   11        0     9  0.5356E+00  0.2057E-01  0.2057E-01  0.1532E-05  0.0000E+00  0.1009E+02  0.5553E+01  0.7517E+02  0.2459E+02  0.2458E+02  0.5339E+01  0.5337E+01  0.3004E+01  0.3004E+01  0.2252E-01  0.2540E-01  0.1701E-04  0.1852E-04  0.5110E-01  0.5200E-01  0.2125E+00  0.2115E+00  0.2316E+04  0.2314E+04  0.2337E+03  0.2276E+03  0.0000E+00  0.0000E+00  0.0000E+00  0.0000E+00  0.0000E+00  0.0000E+00  0.0000E+00  0.0000E+00  0.0000E+00  0.0000E+00  0.0000E+00  0.0000E+00  0.0000E+00  0.0000E+00  0.0000E+00  0.0000E+00  0.0000E+00  0.2761E+02  0.5389E+01  0.0000E+00  0.0000E+00
REACH    1        0    10  0.7264E-01  0.3998E-02  0.3995E-02  0.2609E-05  0.0000E+00  0.1023E+02  0.1023E+02  0.1596E+03  0.1518E+02  0.1517E+02  0.3307E+01  0.3304E+01  0.7803E+00  0.7798E+00  0.0000E+00  0.5302E-02  0.0000E+00  0.0000E+00  0.1275E-01  0.1447E-01  0.1735E+00  0.1681E+00  0.1909E+04  0.1902E+04  0.5601E+02  0.2384E+02  0.0000E+00  0.0000E+00  0.0000E+00  0.0000E+00  0.0000E+00  0.0000E+00  0.0000E+00  0.0000E+00  0.0000E+00  0.0000E+00  0.0000E+00  0.0000E+00  0.0000E+00  0.0000E+00  0.0000E+00  0.0000E+00  0.0000E+00  0.1595E+02  0.3318E+01  0.0000E+00  0.0000E+00
REACH    2        0    10  0.8475E-01  0.4640E-02  0.4637E-02  0.2684E-05  0.0000E+00  0.1157E+02  0.1157E+02  0.1554E+03  0.1791E+02  0.1790E+02  0.3901E+01  0.3898E+01  0.9299E+00  0.9294E+00  0.0000E+00  0.5484E-02  0.0000E+00  0.0000E+00  0.1563E-01  0.1740E-01  0.2072E+00  0.2017E+00  0.2184E+04  0.2177E+04  0.6451E+02  0.2745E+02  0.0000E+00  0.0000E+00  0.0000E+00  0.0000E+00  0.0000E+00  0.0000E+00  0.0000E+00  0.0000E+00  0.0000E+00  0.0000E+00  0.0000E+00  0.0000E+00  0.0000E+00  0.0000E+00  0.0000E+00  0.0000E+00  0.0000E+00  0.1883E+02  0.3916E+01  0.0000E+00  0.0000E+00
REACH    3        0    10  0.4248E-01  0.2301E-02  0.2300E-02  0.8800E-06  0.0000E+00  0.5027E+01  0.5027E+01  0.1359E+03  0.9197E+01  0.9193E+01  0.2000E+01  0.1999E+01  0.4797E+00  0.4796E+00  0.0000E+00  0.1778E-02  0.0000E+00  0.0000E+00  0.8592E-02  0.9167E-02  0.1082E+00  0.1061E+00  0.9797E+03  0.9778E+03  0.3157E+02  0.1340E+02  0.0000E+00  0.0000E+00  0.0000E+00  0.0000E+00  0.0000E+00  0.0000E+00  0.0000E+00  0.0000E+00  0.0000E+00  0.0000E+00  0.0000E+00  0.0000E+00  0.0000E+00  0.0000E+00  0.0000E+00  0.0000E+00  0.0000E+00  0.9675E+01  0.2008E+01  0.0000E+00  0.0000E+00
REACH    4        0    10  0.6813E-01  0.3746E-02  0.3744E-02  0.1624E-05  0.0000E+00  0.8948E+01  0.8948E+01  0.1485E+03  0.1390E+02  0.1389E+02  0.3030E+01  0.3028E+01  0.7384E+00  0.7380E+00  0.0000E+00  0.2830E-02  0.0000E+00  0.0000E+00  0.1621E-01  0.1712E-01  0.1628E+00  0.1600E+00  0.1680E+04  0.1677E+04  0.5157E+02  0.2200E+02  0.0000E+00  0.0000E+00  0.0000E+00  0.0000E+00  0.0000E+00  0.0000E+00  0.0000E+00  0.0000E+00  0.0000E+00  0.0000E+00  0.0000E+00  0.0000E+00  0.0000E+00  0.0000E+00  0.0000E+00  0.0000E+00  0.0000E+00  0.1463E+02  0.3045E+01  0.0000E+00  0.0000E+00
REACH    5        0    10  0.4463E-01  0.2478E-02  0.2477E-02  0.8676E-06  0.0000E+00  0.5396E+01  0.5396E+01  0.1429E+03  0.8495E+01  0.8491E+01  0.1847E+01  0.1846E+01  0.4740E+00  0.4739E+00  0.0000E+00  0.2350E-02  0.0000E+00  0.0000E+00  0.1000E-01  0.1080E-01  0.9409E-01  0.9201E-01  0.9953E+03  0.9925E+03  0.3640E+02  0.1675E+02  0.0000E+00  0.0000E+00  0.0000E+00  0.0000E+00  0.0000E+00  0.0000E+00  0.0000E+00  0.0000E+00  0.0000E+00  0.0000E+00  0.0000E+00  0.0000E+00  0.0000E+00  0.0000E+00  0.0000E+00  0.0000E+00  0.0000E+00  0.8967E+01  0.1856E+01  0.0000E+00  0.0000E+00
REACH    6        0    10  0.8526E-01  0.4569E-02  0.4564E-02  0.4396E-05  0.0000E+00  0.8716E+01  0.8716E+01  0.1257E+03  0.1951E+02  0.1949E+02  0.4228E+01  0.4222E+01  0.9681E+00  0.9673E+00  0.0000E+00  0.1152E-01  0.0000E+00  0.0000E+00  0.2120E-01  0.2497E-01  0.2462E+00  0.2349E+00  0.1795E+04  0.1784E+04  0.6305E+02  0.2979E+02  0.0000E+00  0.0000E+00  0.0000E+00  0.0000E+00  0.0000E+00  0.0000E+00  0.0000E+00  0.0000E+00  0.0000E+00  0.0000E+00  0.0000E+00  0.0000E+00  0.0000E+00  0.0000E+00  0.0000E+00  0.0000E+00  0.0000E+00  0.2047E+02  0.4247E+01  0.0000E+00  0.0000E+00
REACH    7        0    10  0.1545E+00  0.8395E-02  0.8392E-02  0.2838E-05  0.0000E+00  0.1875E+02  0.4158E+01  0.7599E+02  0.3283E+02  0.3282E+02  0.7145E+01  0.7141E+01  0.1720E+01  0.1719E+01  0.4608E-02  0.1280E-01  0.0000E+00  0.1056E-04  0.3725E-01  0.4017E-01  0.3852E+00  0.3784E+00  0.3611E+04  0.3602E+04  0.6683E+02  0.4870E+02  0.0000E+00  0.0000E+00  0.0000E+00  0.0000E+00  0.0000E+00  0.0000E+00  0.0000E+00  0.0000E+00  0.0000E+00  0.0000E+00  0.0000E+00  0.0000E+00  0.0000E+00  0.0000E+00  0.0000E+00  0.0000E+00  0.0000E+00  0.3455E+02  0.7182E+01  0.0000E+00  0.0000E+00
REACH    8        0    10  0.2618E+00  0.1427E-01  0.1426E-01  0.5014E-05  0.0000E+00  0.1864E+02  0.7446E+01  0.8187E+02  0.5542E+02  0.5539E+02  0.1206E+02  0.1205E+02  0.2888E+01  0.2887E+01  0.1810E-01  0.3504E-01  0.1056E-04  0.2257E-04  0.6208E-01  0.6777E-01  0.6357E+00  0.6247E+00  0.6372E+04  0.6353E+04  0.9792E+02  0.7914E+02  0.0000E+00  0.0000E+00  0.0000E+00  0.0000E+00  0.0000E+00  0.0000E+00  0.0000E+00  0.0000E+00  0.0000E+00  0.0000E+00  0.0000E+00  0.0000E+00  0.0000E+00  0.0000E+00  0.0000E+00  0.0000E+00  0.0000E+00  0.5832E+02  0.1212E+02  0.0000E+00  0.0000E+00
REACH    9        0    10  0.3682E+00  0.2011E-01  0.2010E-01  0.7380E-05  0.0000E+00  0.2019E+02  0.1160E+02  0.9480E+02  0.7670E+02  0.7666E+02  0.1668E+02  0.1667E+02  0.4042E+01  0.4041E+01  0.4052E-01  0.6586E-01  0.2257E-04  0.3656E-04  0.9211E-01  0.1006E+00  0.8663E+00  0.8511E+00  0.8764E+04  0.8735E+04  0.1261E+03  0.1182E+03  0.0000E+00  0.0000E+00  0.0000E+00  0.0000E+00  0.0000E+00  0.0000E+00  0.0000E+00  0.0000E+00  0.0000E+00  0.0000E+00  0.0000E+00  0.0000E+00  0.0000E+00  0.0000E+00  0.0000E+00  0.0000E+00  0.0000E+00  0.8077E+02  0.1677E+02  0.0000E+00  0.0000E+00
REACH   10        0    10  0.4236E+00  0.2321E-01  0.2320E-01  0.3925E-05  0.0000E+00  0.1736E+02  0.1208E+02  0.9103E+02  0.8647E+02  0.8645E+02  0.1880E+02  0.1879E+02  0.4610E+01  0.4610E+01  0.6821E-01  0.8254E-01  0.3656E-04  0.4359E-04  0.1158E+00  0.1206E+00  0.9613E+00  0.9535E+00  0.9799E+04  0.9783E+04  0.1456E+03  0.1422E+03  0.0000E+00  0.0000E+00  0.0000E+00  0.0000E+00  0.0000E+00  0.0000E+00  0.0000E+00  0.0000E+00  0.0000E+00  0.0000E+00  0.0000E+00  0.0000E+00  0.0000E+00  0.0000E+00  0.0000E+00  0.0000E+00  0.0000E+00  0.9114E+02  0.1891E+02  0.0000E+00  0.0000E+00
REACH   11        0    10  0.5356E+00  0.2926E-01  0.2926E-01  0.1967E-05  0.0000E+00  0.2195E+02  0.9678E+01  0.6637E+02  0.1099E+03  0.1099E+03  0.2386E+02  0.2386E+02  0.5857E+01  0.5856E+01  0.9406E-01  0.1045E+00  0.4359E-04  0.4725E-04  0.1630E+00  0.1666E+00  0.1242E+01  0.1237E+01  0.1181E+05  0.1180E+05  0.1950E+03  0.1856E+03  0.0000E+00  0.0000E+00  0.0000E+00  0.0000E+00  0.0000E+00  0.0000E+00  0.0000E+00  0.0000E+00  0.0000E+00  0.0000E+00  0.0000E+00  0.0000E+00  0.0000E+00  0.0000E+00  0.0000E+00  0.0000E+00  0.0000E+00  0.1158E+03  0.2403E+02  0.0000E+00  0.0000E+00
REACH    1        0    11  0.7264E-01  0.3037E-02  0.3035E-02  0.2044E-05  0.0000E+00  0.9589E+01  0.9589E+01  0.1753E+03  0.1208E+02  0.1207E+02  0.2633E+01  0.2631E+01  0.6866E+00  0.6862E+00  0.0000E+00  0.3997E-02  0.0000E+00  0.0000E+00  0.5965E-02  0.7207E-02  0.9783E-01  0.9519E-01  0.1358E+04  0.1355E+04  0.4853E+02  0.2485E+02  0.0000E+00  0.0000E+00  0.0000E+00  0.0000E+00  0.0000E+00  0.0000E+00  0.0000E+00  0.0000E+00  0.0000E+00  0.0000E+00  0.0000E+00  0.0000E+00  0.0000E+00  0.0000E+00  0.0000E+00  0.0000E+00  0.0000E+00  0.1276E+02  0.2638E+01  0.0000E+00  0.0000E+00
REACH    2        0    11  0.8475E-01  0.3515E-02  0.3513E-02  0.2075E-05  0.0000E+00  0.1091E+02  0.1091E+02  0.1711E+03  0.1443E+02  0.1442E+02  0.3145E+01  0.3143E+01  0.8105E+00  0.8100E+00  0.0000E+00  0.4125E-02  0.0000E+00  0.0000E+00  0.7437E-02  0.8715E-02  0.1212E+00  0.1183E+00  0.1586E+04  0.1582E+04  0.5562E+02  0.2843E+02  0.0000E+00  0.0000E+00  0.0000E+00  0.0000E+00  0.0000E+00  0.0000E+00  0.0000E+00  0.0000E+00  0.0000E+00  0.0000E+00  0.0000E+00  0.0000E+00  0.0000E+00  0.0000E+00  0.0000E+00  0.0000E+00  0.0000E+00  0.1524E+02  0.3152E+01  0.0000E+00  0.0000E+00
REACH    3        0    11  0.4248E-01  0.1737E-02  0.1736E-02  0.8185E-06  0.0000E+00  0.4769E+01  0.4769E+01  0.1498E+03  0.7601E+01  0.7596E+01  0.1653E+01  0.1652E+01  0.4147E+00  0.4145E+00  0.0000E+00  0.2284E-02  0.0000E+00  0.0000E+00  0.4217E-02  0.4977E-02  0.6798E-01  0.6600E-01  0.7445E+03  0.7422E+03  0.2700E+02  0.1378E+02  0.0000E+00  0.0000E+00  0.0000E+00  0.0000E+00  0.0000E+00  0.0000E+00  0.0000E+00  0.0000E+00  0.0000E+00  0.0000E+00  0.0000E+00  0.0000E+00  0.0000E+00  0.0000E+00  0.0000E+00  0.0000E+00  0.0000E+00  0.8013E+01  0.1657E+01  0.0000E+00  0.0000E+00
REACH    4        0    11  0.6813E-01  0.2838E-02  0.2837E-02  0.1301E-05  0.0000E+00  0.8421E+01  0.8421E+01  0.1634E+03  0.1132E+02  0.1131E+02  0.2470E+01  0.2468E+01  0.6475E+00  0.6472E+00  0.0000E+00  0.3484E-02  0.0000E+00  0.0000E+00  0.8037E-02  0.9190E-02  0.9798E-01  0.9542E-01  0.1211E+04  0.1207E+04  0.4464E+02  0.2291E+02  0.0000E+00  0.0000E+00  0.0000E+00  0.0000E+00  0.0000E+00  0.0000E+00  0.0000E+00  0.0000E+00  0.0000E+00  0.0000E+00  0.0000E+00  0.0000E+00  0.0000E+00  0.0000E+00  0.0000E+00  0.0000E+00  0.0000E+00  0.1196E+02  0.2477E+01  0.0000E+00  0.0000E+00
REACH    5        0    11  0.4463E-01  0.1879E-02  0.1878E-02  0.7274E-06  0.0000E+00  0.5026E+01  0.5026E+01  0.1571E+03  0.6799E+01  0.6795E+01  0.1479E+01  0.1478E+01  0.4153E+00  0.4151E+00  0.0000E+00  0.1800E-02  0.0000E+00  0.0000E+00  0.4729E-02  0.5327E-02  0.5260E-01  0.5135E-01  0.7003E+03  0.6985E+03  0.3096E+02  0.1672E+02  0.0000E+00  0.0000E+00  0.0000E+00  0.0000E+00  0.0000E+00  0.0000E+00  0.0000E+00  0.0000E+00  0.0000E+00  0.0000E+00  0.0000E+00  0.0000E+00  0.0000E+00  0.0000E+00  0.0000E+00  0.0000E+00  0.0000E+00  0.7212E+01  0.1483E+01  0.0000E+00  0.0000E+00
REACH    6        0    11  0.8526E-01  0.3362E-02  0.3359E-02  0.3373E-05  0.0000E+00  0.8229E+01  0.8229E+01  0.1367E+03  0.1644E+02  0.1643E+02  0.3563E+01  0.3559E+01  0.8089E+00  0.8082E+00  0.0000E+00  0.7624E-02  0.0000E+00  0.0000E+00  0.1091E-01  0.1331E-01  0.1737E+00  0.1669E+00  0.1450E+04  0.1444E+04  0.5095E+02  0.2751E+02  0.0000E+00  0.0000E+00  0.0000E+00  0.0000E+00  0.0000E+00  0.0000E+00  0.0000E+00  0.0000E+00  0.0000E+00  0.0000E+00  0.0000E+00  0.0000E+00  0.0000E+00  0.0000E+00  0.0000E+00  0.0000E+00  0.0000E+00  0.1724E+02  0.3573E+01  0.0000E+00  0.0000E+00
REACH    7        0    11  0.1545E+00  0.6339E-02  0.6336E-02  0.2211E-05  0.0000E+00  0.1774E+02  0.3449E+01  0.9337E+02  0.2716E+02  0.2715E+02  0.5915E+01  0.5912E+01  0.1492E+01  0.1491E+01  0.5768E-02  0.1098E-01  0.0000E+00  0.2689E-05  0.1980E-01  0.2145E-01  0.2425E+00  0.2393E+00  0.2705E+04  0.2700E+04  0.6337E+02  0.5029E+02  0.0000E+00  0.0000E+00  0.0000E+00  0.0000E+00  0.0000E+00  0.0000E+00  0.0000E+00  0.0000E+00  0.0000E+00  0.0000E+00  0.0000E+00  0.0000E+00  0.0000E+00  0.0000E+00  0.0000E+00  0.0000E+00  0.0000E+00  0.2865E+02  0.5934E+01  0.0000E+00  0.0000E+00
REACH    8        0    11  0.2618E+00  0.1079E-01  0.1078E-01  0.3984E-05  0.0000E+00  0.1694E+02  0.5846E+01  0.9192E+02  0.4539E+02  0.4538E+02  0.9886E+01  0.9881E+01  0.2514E+01  0.2513E+01  0.1498E-01  0.2561E-01  0.2689E-05  0.8041E-05  0.3236E-01  0.3576E-01  0.3914E+00  0.3859E+00  0.4702E+04  0.4693E+04  0.9682E+02  0.8341E+02  0.0000E+00  0.0000E+00  0.0000E+00  0.0000E+00  0.0000E+00  0.0000E+00  0.0000E+00  0.0000E+00  0.0000E+00  0.0000E+00  0.0000E+00  0.0000E+00  0.0000E+00  0.0000E+00  0.0000E+00  0.0000E+00  0.0000E+00  0.4792E+02  0.9917E+01  0.0000E+00  0.0000E+00
REACH    9        0    11  0.3682E+00  0.1520E-01  0.1519E-01  0.5875E-05  0.0000E+00  0.1787E+02  0.9232E+01  0.1035E+03  0.6276E+02  0.6274E+02  0.1366E+02  0.1365E+02  0.3515E+01  0.3514E+01  0.2973E-01  0.4506E-01  0.8041E-05  0.1648E-04  0.4779E-01  0.5267E-01  0.5314E+00  0.5237E+00  0.6463E+04  0.6449E+04  0.1274E+03  0.1220E+03  0.0000E+00  0.0000E+00  0.0000E+00  0.0000E+00  0.0000E+00  0.0000E+00  0.0000E+00  0.0000E+00  0.0000E+00  0.0000E+00  0.0000E+00  0.0000E+00  0.0000E+00  0.0000E+00  0.0000E+00  0.0000E+00  0.0000E+00  0.6630E+02  0.1371E+02  0.0000E+00  0.0000E+00
REACH   10        0    11  0.4236E+00  0.1754E-01  0.1753E-01  0.3115E-05  0.0000E+00  0.1459E+02  0.9792E+01  0.1035E+03  0.7071E+02  0.7070E+02  0.1538E+02  0.1538E+02  0.4011E+01  0.4010E+01  0.4686E-01  0.5593E-01  0.1648E-04  0.2060E-04  0.6013E-01  0.6306E-01  0.5888E+00  0.5848E+00  0.7204E+04  0.7196E+04  0.1470E+03  0.1448E+03  0.0000E+00  0.0000E+00  0.0000E+00  0.0000E+00  0.0000E+00  0.0000E+00  0.0000E+00  0.0000E+00  0.0000E+00  0.0000E+00  0.0000E+00  0.0000E+00  0.0000E+00  0.0000E+00  0.0000E+00  0.0000E+00  0.0000E+00  0.7476E+02  0.1544E+02  0.0000E+00  0.0000E+00
REACH   11        0    11  0.5356E+00  0.2198E-01  0.2198E-01  0.1618E-05  0.0000E+00  0.1910E+02  0.6697E+01  0.6920E+02  0.9068E+02  0.9067E+02  0.1970E+02  0.1970E+02  0.5064E+01  0.5064E+01  0.6356E-01  0.7245E-01  0.2060E-04  0.2304E-04  0.8598E-01  0.8904E-01  0.7947E+00  0.7915E+00  0.8847E+04  0.8839E+04  0.1897E+03  0.1836E+03  0.0000E+00  0.0000E+00  0.0000E+00  0.0000E+00  0.0000E+00  0.0000E+00  0.0000E+00  0.0000E+00  0.0000E+00  0.0000E+00  0.0000E+00  0.0000E+00  0.0000E+00  0.0000E+00  0.0000E+00  0.0000E+00  0.0000E+00  0.9581E+02  0.1979E+02  0.0000E+00  0.0000E+00
REACH    1        0    12  0.7264E-01  0.5579E-02  0.5576E-02  0.2750E-05  0.0000E+00  0.3322E+02  0.3322E+02  0.4866E+03  0.3467E+02  0.3465E+02  0.7563E+01  0.7557E+01  0.1524E+01  0.1524E+01  0.0000E+00  0.9487E-02  0.0000E+00  0.0000E+00  0.1017E-01  0.1338E-01  0.3189E+00  0.3115E+00  0.4321E+04  0.4309E+04  0.9358E+02  0.4844E+02  0.0000E+00  0.0000E+00  0.0000E+00  0.0000E+00  0.0000E+00  0.0000E+00  0.0000E+00  0.0000E+00  0.0000E+00  0.0000E+00  0.0000E+00  0.0000E+00  0.0000E+00  0.0000E+00  0.0000E+00  0.0000E+00  0.0000E+00  0.3619E+02  0.7570E+01  0.0000E+00  0.0000E+00
REACH    2        0    12  0.8475E-01  0.6495E-02  0.6493E-02  0.2135E-05  0.0000E+00  0.3757E+02  0.3757E+02  0.4718E+03  0.4147E+02  0.4146E+02  0.9045E+01  0.9041E+01  0.1848E+01  0.1848E+01  0.0000E+00  0.9760E-02  0.0000E+00  0.0000E+00  0.1272E-01  0.1602E-01  0.3912E+00  0.3836E+00  0.5005E+04  0.4994E+04  0.1082E+03  0.5598E+02  0.0000E+00  0.0000E+00  0.0000E+00  0.0000E+00  0.0000E+00  0.0000E+00  0.0000E+00  0.0000E+00  0.0000E+00  0.0000E+00  0.0000E+00  0.0000E+00  0.0000E+00  0.0000E+00  0.0000E+00  0.0000E+00  0.0000E+00  0.4331E+02  0.9057E+01  0.0000E+00  0.0000E+00
REACH    3        0    12  0.4248E-01  0.3240E-02  0.3239E-02  0.1093E-05  0.0000E+00  0.1615E+02  0.1615E+02  0.4048E+03  0.2182E+02  0.2180E+02  0.4746E+01  0.4742E+01  0.9900E+00  0.9897E+00  0.0000E+00  0.6646E-02  0.0000E+00  0.0000E+00  0.7243E-02  0.9566E-02  0.2135E+00  0.2072E+00  0.2296E+04  0.2289E+04  0.5342E+02  0.2776E+02  0.0000E+00  0.0000E+00  0.0000E+00  0.0000E+00  0.0000E+00  0.0000E+00  0.0000E+00  0.0000E+00  0.0000E+00  0.0000E+00  0.0000E+00  0.0000E+00  0.0000E+00  0.0000E+00  0.0000E+00  0.0000E+00  0.0000E+00  0.2280E+02  0.4752E+01  0.0000E+00  0.0000E+00
REACH    4        0    12  0.6813E-01  0.5224E-02  0.5222E-02  0.1687E-05  0.0000E+00  0.2919E+02  0.2919E+02  0.4543E+03  0.3317E+02  0.3315E+02  0.7248E+01  0.7242E+01  0.1453E+01  0.1452E+01  0.0000E+00  0.1034E-01  0.0000E+00  0.0000E+00  0.1378E-01  0.1740E-01  0.3245E+00  0.3159E+00  0.3863E+04  0.3851E+04  0.8661E+02  0.4501E+02  0.0000E+00  0.0000E+00  0.0000E+00  0.0000E+00  0.0000E+00  0.0000E+00  0.0000E+00  0.0000E+00  0.0000E+00  0.0000E+00  0.0000E+00  0.0000E+00  0.0000E+00  0.0000E+00  0.0000E+00  0.0000E+00  0.0000E+00  0.3462E+02  0.7259E+01  0.0000E+00  0.0000E+00
REACH    5        0    12  0.4463E-01  0.3380E-02  0.3379E-02  0.8042E-06  0.0000E+00  0.1737E+02  0.1737E+02  0.4324E+03  0.1971E+02  0.1970E+02  0.4286E+01  0.4283E+01  0.9294E+00  0.9293E+00  0.0000E+00  0.4159E-02  0.0000E+00  0.0000E+00  0.7964E-02  0.9408E-02  0.1710E+00  0.1676E+00  0.2217E+04  0.2212E+04  0.5805E+02  0.3108E+02  0.0000E+00  0.0000E+00  0.0000E+00  0.0000E+00  0.0000E+00  0.0000E+00  0.0000E+00  0.0000E+00  0.0000E+00  0.0000E+00  0.0000E+00  0.0000E+00  0.0000E+00  0.0000E+00  0.0000E+00  0.0000E+00  0.0000E+00  0.2063E+02  0.4293E+01  0.0000E+00  0.0000E+00
REACH    6        0    12  0.8526E-01  0.6270E-02  0.6264E-02  0.5365E-05  0.0000E+00  0.2549E+02  0.2549E+02  0.3343E+03  0.4436E+02  0.4429E+02  0.9612E+01  0.9590E+01  0.2175E+01  0.2174E+01  0.0000E+00  0.3817E-01  0.0000E+00  0.0000E+00  0.1796E-01  0.3128E-01  0.4520E+00  0.4214E+00  0.3899E+04  0.3864E+04  0.1030E+03  0.5503E+02  0.0000E+00  0.0000E+00  0.0000E+00  0.0000E+00  0.0000E+00  0.0000E+00  0.0000E+00  0.0000E+00  0.0000E+00  0.0000E+00  0.0000E+00  0.0000E+00  0.0000E+00  0.0000E+00  0.0000E+00  0.0000E+00  0.0000E+00  0.4650E+02  0.9621E+01  0.0000E+00  0.0000E+00
REACH    7        0    12  0.1545E+00  0.1179E-01  0.1178E-01  0.2648E-05  0.0000E+00  0.6035E+02  0.7391E+01  0.1309E+03  0.7846E+02  0.7844E+02  0.1710E+02  0.1709E+02  0.3532E+01  0.3531E+01  0.1698E-01  0.3030E-01  0.0000E+00  0.2520E-06  0.3657E-01  0.4114E-01  0.7659E+00  0.7572E+00  0.8374E+04  0.8360E+04  0.1268E+03  0.1009E+03  0.0000E+00  0.0000E+00  0.0000E+00  0.0000E+00  0.0000E+00  0.0000E+00  0.0000E+00  0.0000E+00  0.0000E+00  0.0000E+00  0.0000E+00  0.0000E+00  0.0000E+00  0.0000E+00  0.0000E+00  0.0000E+00  0.0000E+00  0.8200E+02  0.1713E+02  0.0000E+00  0.0000E+00
REACH    8        0    12  0.2618E+00  0.2000E-01  0.2000E-01  0.5058E-05  0.0000E+00  0.5348E+02  0.1271E+02  0.1355E+03  0.1308E+03  0.1308E+03  0.2850E+02  0.2849E+02  0.5867E+01  0.5865E+01  0.3979E-01  0.6686E-01  0.2520E-06  0.1219E-05  0.6089E-01  0.7022E-01  0.1246E+01  0.1231E+01  0.1458E+05  0.1455E+05  0.1924E+03  0.1687E+03  0.0000E+00  0.0000E+00  0.0000E+00  0.0000E+00  0.0000E+00  0.0000E+00  0.0000E+00  0.0000E+00  0.0000E+00  0.0000E+00  0.0000E+00  0.0000E+00  0.0000E+00  0.0000E+00  0.0000E+00  0.0000E+00  0.0000E+00  0.1367E+03  0.2856E+02  0.0000E+00  0.0000E+00
REACH    9        0    12  0.3682E+00  0.2798E-01  0.2797E-01  0.5864E-05  0.0000E+00  0.5395E+02  0.1903E+02  0.1481E+03  0.1810E+03  0.1810E+03  0.3941E+02  0.3940E+02  0.8135E+01  0.8134E+01  0.7662E-01  0.1180E+00  0.1219E-05  0.3475E-05  0.9183E-01  0.1061E+00  0.1698E+01  0.1677E+01  0.2011E+05  0.2007E+05  0.2510E+03  0.2403E+03  0.0000E+00  0.0000E+00  0.0000E+00  0.0000E+00  0.0000E+00  0.0000E+00  0.0000E+00  0.0000E+00  0.0000E+00  0.0000E+00  0.0000E+00  0.0000E+00  0.0000E+00  0.0000E+00  0.0000E+00  0.0000E+00  0.0000E+00  0.1892E+03  0.3950E+02  0.0000E+00  0.0000E+00
REACH   10        0    12  0.4236E+00  0.3205E-01  0.3205E-01  0.3129E-05  0.0000E+00  0.3753E+02  0.2055E+02  0.1383E+03  0.2042E+03  0.2042E+03  0.4444E+02  0.4443E+02  0.9218E+01  0.9217E+01  0.1222E+00  0.1453E+00  0.3475E-05  0.5397E-05  0.1191E+00  0.1271E+00  0.1886E+01  0.1875E+01  0.2246E+05  0.2243E+05  0.2840E+03  0.2795E+03  0.0000E+00  0.0000E+00  0.0000E+00  0.0000E+00  0.0000E+00  0.0000E+00  0.0000E+00  0.0000E+00  0.0000E+00  0.0000E+00  0.0000E+00  0.0000E+00  0.0000E+00  0.0000E+00  0.0000E+00  0.0000E+00  0.0000E+00  0.2136E+03  0.4456E+02  0.0000E+00  0.0000E+00
REACH   11        0    12  0.5356E+00  0.4013E-01  0.4013E-01  0.1961E-05  0.0000E+00  0.4931E+02  0.1220E+02  0.8906E+02  0.2588E+03  0.2588E+03  0.5624E+02  0.5623E+02  0.1196E+02  0.1196E+02  0.1835E+00  0.2123E+00  0.5397E-05  0.5940E-05  0.1745E+00  0.1847E+00  0.2418E+01  0.2408E+01  0.2686E+05  0.2683E+05  0.3650E+03  0.3529E+03  0.0000E+00  0.0000E+00  0.0000E+00  0.0000E+00  0.0000E+00  0.0000E+00  0.0000E+00  0.0000E+00  0.0000E+00  0.0000E+00  0.0000E+00  0.0000E+00  0.0000E+00  0.0000E+00  0.0000E+00  0.0000E+00  0.0000E+00  0.2710E+03  0.5642E+02  0.0000E+00  0.0000E+00
REACH    1        0  2013  0.7264E-01  0.4998E-02  0.4996E-02  0.2210E-05  0.0000E+00  0.1809E+03  0.1809E+03  0.1929E+03  0.3136E+03  0.3134E+03  0.6884E+02  0.6878E+02  0.1232E+02  0.1232E+02  0.0000E+00  0.1110E+00  0.0000E+00  0.0000E+00  0.1923E+00  0.2301E+00  0.3529E+01  0.3428E+01  0.2664E+05  0.2656E+05  0.9824E+03  0.6260E+03  0.0000E+00  0.0000E+00  0.0000E+00  0.0000E+00  0.0000E+00  0.0000E+00  0.0000E+00  0.0000E+00  0.0000E+00  0.0000E+00  0.0000E+00  0.0000E+00  0.0000E+00  0.0000E+00  0.0000E+00  0.0000E+00  0.0000E+00  0.3259E+03  0.6901E+02  0.0000E+00  0.0000E+00
[...]
REACH    1        0    12  0.7264E-01  0.7870E-02  0.7867E-02  0.2542E-05  0.0000E+00  0.3392E+02  0.3392E+02  0.5720E+03  0.5473E+02  0.5470E+02  0.1189E+02  0.1188E+02  0.2426E+01  0.2425E+01  0.0000E+00  0.1467E-01  0.0000E+00  0.0000E+00  0.2062E-01  0.2569E-01  0.3641E+00  0.3551E+00  0.4137E+04  0.4126E+04  0.1229E+03  0.4259E+02  0.0000E+00  0.0000E+00  0.0000E+00  0.0000E+00  0.0000E+00  0.0000E+00  0.0000E+00  0.0000E+00  0.0000E+00  0.0000E+00  0.0000E+00  0.0000E+00  0.0000E+00  0.0000E+00  0.0000E+00  0.0000E+00  0.0000E+00  0.5714E+02  0.1191E+02  0.0000E+00  0.0000E+00
REACH    2        0    12  0.8475E-01  0.9186E-02  0.9184E-02  0.2081E-05  0.0000E+00  0.3821E+02  0.3821E+02  0.5550E+03  0.6391E+02  0.6388E+02  0.1388E+02  0.1387E+02  0.2948E+01  0.2947E+01  0.0000E+00  0.1475E-01  0.0000E+00  0.0000E+00  0.2513E-01  0.3023E-01  0.4365E+00  0.4272E+00  0.4791E+04  0.4781E+04  0.1419E+03  0.4888E+02  0.0000E+00  0.0000E+00  0.0000E+00  0.0000E+00  0.0000E+00  0.0000E+00  0.0000E+00  0.0000E+00  0.0000E+00  0.0000E+00  0.0000E+00  0.0000E+00  0.0000E+00  0.0000E+00  0.0000E+00  0.0000E+00  0.0000E+00  0.6685E+02  0.1390E+02  0.0000E+00  0.0000E+00
REACH    3        0    12  0.4248E-01  0.4601E-02  0.4600E-02  0.1248E-05  0.0000E+00  0.1609E+02  0.1609E+02  0.4687E+03  0.3108E+02  0.3106E+02  0.6742E+01  0.6737E+01  0.1598E+01  0.1597E+01  0.0000E+00  0.7863E-02  0.0000E+00  0.0000E+00  0.1381E-01  0.1656E-01  0.2190E+00  0.2135E+00  0.2159E+04  0.2153E+04  0.7021E+02  0.2381E+02  0.0000E+00  0.0000E+00  0.0000E+00  0.0000E+00  0.0000E+00  0.0000E+00  0.0000E+00  0.0000E+00  0.0000E+00  0.0000E+00  0.0000E+00  0.0000E+00  0.0000E+00  0.0000E+00  0.0000E+00  0.0000E+00  0.0000E+00  0.3267E+02  0.6754E+01  0.0000E+00  0.0000E+00
REACH    4        0    12  0.6813E-01  0.7373E-02  0.7371E-02  0.1928E-05  0.0000E+00  0.2982E+02  0.2982E+02  0.5357E+03  0.5070E+02  0.5067E+02  0.1101E+02  0.1100E+02  0.2285E+01  0.2285E+01  0.0000E+00  0.1245E-01  0.0000E+00  0.0000E+00  0.2366E-01  0.2802E-01  0.3550E+00  0.3474E+00  0.3701E+04  0.3692E+04  0.1134E+03  0.3903E+02  0.0000E+00  0.0000E+00  0.0000E+00  0.0000E+00  0.0000E+00  0.0000E+00  0.0000E+00  0.0000E+00  0.0000E+00  0.0000E+00  0.0000E+00  0.0000E+00  0.0000E+00  0.0000E+00  0.0000E+00  0.0000E+00  0.0000E+00  0.5297E+02  0.1103E+02  0.0000E+00  0.0000E+00
REACH    5        0    12  0.4463E-01  0.4702E-02  0.4701E-02  0.9735E-06  0.0000E+00  0.1780E+02  0.1780E+02  0.5107E+03  0.3013E+02  0.3012E+02  0.6534E+01  0.6530E+01  0.1396E+01  0.1395E+01  0.0000E+00  0.6832E-02  0.0000E+00  0.0000E+00  0.1442E-01  0.1682E-01  0.1921E+00  0.1879E+00  0.2139E+04  0.2134E+04  0.7549E+02  0.2725E+02  0.0000E+00  0.0000E+00  0.0000E+00  0.0000E+00  0.0000E+00  0.0000E+00  0.0000E+00  0.0000E+00  0.0000E+00  0.0000E+00  0.0000E+00  0.0000E+00  0.0000E+00  0.0000E+00  0.0000E+00  0.0000E+00  0.0000E+00  0.3152E+02  0.6547E+01  0.0000E+00  0.0000E+00
REACH    6        0    12  0.8526E-01  0.8766E-02  0.8760E-02  0.5275E-05  0.0000E+00  0.2297E+02  0.2297E+02  0.3575E+03  0.5356E+02  0.5350E+02  0.1159E+02  0.1157E+02  0.3183E+01  0.3181E+01  0.0000E+00  0.3730E-01  0.0000E+00  0.0000E+00  0.3064E-01  0.4363E-01  0.3906E+00  0.3684E+00  0.3342E+04  0.3318E+04  0.1342E+03  0.4691E+02  0.0000E+00  0.0000E+00  0.0000E+00  0.0000E+00  0.0000E+00  0.0000E+00  0.0000E+00  0.0000E+00  0.0000E+00  0.0000E+00  0.0000E+00  0.0000E+00  0.0000E+00  0.0000E+00  0.0000E+00  0.0000E+00  0.0000E+00  0.5671E+02  0.1162E+02  0.0000E+00  0.0000E+00
REACH    7        0    12  0.1545E+00  0.1668E-01  0.1668E-01  0.2174E-05  0.0000E+00  0.6021E+02  0.1159E+02  0.1582E+03  0.1125E+03  0.1125E+03  0.2441E+02  0.2440E+02  0.5563E+01  0.5562E+01  0.2031E-01  0.3947E-01  0.0000E+00  0.4827E-05  0.6090E-01  0.6756E-01  0.7877E+00  0.7778E+00  0.7856E+04  0.7843E+04  0.1337E+03  0.8669E+02  0.0000E+00  0.0000E+00  0.0000E+00  0.0000E+00  0.0000E+00  0.0000E+00  0.0000E+00  0.0000E+00  0.0000E+00  0.0000E+00  0.0000E+00  0.0000E+00  0.0000E+00  0.0000E+00  0.0000E+00  0.0000E+00  0.0000E+00  0.1181E+03  0.2447E+02  0.0000E+00  0.0000E+00
REACH    8        0    12  0.2618E+00  0.2830E-01  0.2830E-01  0.4251E-05  0.0000E+00  0.5837E+02  0.1846E+02  0.1517E+03  0.1919E+03  0.1919E+03  0.4165E+02  0.4163E+02  0.9294E+01  0.9293E+01  0.5413E-01  0.9704E-01  0.4827E-05  0.1297E-04  0.1050E+00  0.1200E+00  0.1310E+01  0.1292E+01  0.1380E+05  0.1377E+05  0.1858E+03  0.1420E+03  0.0000E+00  0.0000E+00  0.0000E+00  0.0000E+00  0.0000E+00  0.0000E+00  0.0000E+00  0.0000E+00  0.0000E+00  0.0000E+00  0.0000E+00  0.0000E+00  0.0000E+00  0.0000E+00  0.0000E+00  0.0000E+00  0.0000E+00  0.2013E+03  0.4175E+02  0.0000E+00  0.0000E+00
REACH    9        0    12  0.3682E+00  0.3948E-01  0.3948E-01  0.5580E-05  0.0000E+00  0.6005E+02  0.2934E+02  0.1731E+03  0.2656E+03  0.2655E+03  0.5760E+02  0.5758E+02  0.1288E+02  0.1287E+02  0.1118E+00  0.1730E+00  0.1297E-04  0.1774E-04  0.1587E+00  0.1801E+00  0.1782E+01  0.1757E+01  0.1903E+05  0.1898E+05  0.2243E+03  0.2046E+03  0.0000E+00  0.0000E+00  0.0000E+00  0.0000E+00  0.0000E+00  0.0000E+00  0.0000E+00  0.0000E+00  0.0000E+00  0.0000E+00  0.0000E+00  0.0000E+00  0.0000E+00  0.0000E+00  0.0000E+00  0.0000E+00  0.0000E+00  0.2785E+03  0.5776E+02  0.0000E+00  0.0000E+00
REACH   10        0    12  0.4236E+00  0.4508E-01  0.4507E-01  0.2988E-05  0.0000E+00  0.4820E+02  0.3045E+02  0.1596E+03  0.2993E+03  0.2993E+03  0.6489E+02  0.6488E+02  0.1450E+02  0.1450E+02  0.1798E+00  0.2157E+00  0.1774E-04  0.2044E-04  0.2020E+00  0.2146E+00  0.1975E+01  0.1962E+01  0.2126E+05  0.2124E+05  0.2472E+03  0.2391E+03  0.0000E+00  0.0000E+00  0.0000E+00  0.0000E+00  0.0000E+00  0.0000E+00  0.0000E+00  0.0000E+00  0.0000E+00  0.0000E+00  0.0000E+00  0.0000E+00  0.0000E+00  0.0000E+00  0.0000E+00  0.0000E+00  0.0000E+00  0.3140E+03  0.6509E+02  0.0000E+00  0.0000E+00
REACH   11        0    12  0.5356E+00  0.5629E-01  0.5629E-01  0.2331E-05  0.0000E+00  0.5631E+02  0.1654E+02  0.9178E+02  0.3638E+03  0.3638E+03  0.7882E+02  0.7880E+02  0.1850E+02  0.1849E+02  0.2530E+00  0.2959E+00  0.2044E-04  0.2188E-04  0.2811E+00  0.2964E+00  0.2427E+01  0.2416E+01  0.2502E+05  0.2499E+05  0.3243E+03  0.3020E+03  0.0000E+00  0.0000E+00  0.0000E+00  0.0000E+00  0.0000E+00  0.0000E+00  0.0000E+00  0.0000E+00  0.0000E+00  0.0000E+00  0.0000E+00  0.0000E+00  0.0000E+00  0.0000E+00  0.0000E+00  0.0000E+00  0.0000E+00  0.3826E+03  0.7910E+02  0.0000E+00  0.0000E+00
REACH    1        0  2016  0.7264E-01  0.4948E-02  0.4945E-02  0.2484E-05  0.0000E+00  0.5516E+02  0.5516E+02  0.7664E+02  0.1056E+03  0.1055E+03  0.2295E+02  0.2293E+02  0.9631E+01  0.9623E+01  0.0000E+00  0.3838E-01  0.0000E+00  0.0000E+00  0.1717E+00  0.1830E+00  0.9427E+00  0.9183E+00  0.7763E+04  0.7741E+04  0.1044E+04  0.7280E+03  0.0000E+00  0.0000E+00  0.0000E+00  0.0000E+00  0.0000E+00  0.0000E+00  0.0000E+00  0.0000E+00  0.0000E+00  0.0000E+00  0.0000E+00  0.0000E+00  0.0000E+00  0.0000E+00  0.0000E+00  0.0000E+00  0.0000E+00  0.1152E+03  0.2311E+02  0.0000E+00  0.0000E+00
REACH    2        0  2016  0.8475E-01  0.5749E-02  0.5747E-02  0.2338E-05  0.0000E+00  0.6237E+02  0.6237E+02  0.7499E+02  0.1232E+03  0.1231E+03  0.2675E+02  0.2674E+02  0.1132E+02  0.1131E+02  0.0000E+00  0.3877E-01  0.0000E+00  0.0000E+00  0.2075E+00  0.2188E+00  0.1131E+01  0.1106E+01  0.9012E+04  0.8991E+04  0.1211E+04  0.8452E+03  0.0000E+00  0.0000E+00  0.0000E+00  0.0000E+00  0.0000E+00  0.0000E+00  0.0000E+00  0.0000E+00  0.0000E+00  0.0000E+00  0.0000E+00  0.0000E+00  0.0000E+00  0.0000E+00  0.0000E+00  0.0000E+00  0.0000E+00  0.1345E+03  0.2696E+02  0.0000E+00  0.0000E+00
REACH    3        0  2016  0.4248E-01  0.2873E-02  0.2872E-02  0.8402E-06  0.0000E+00  0.2654E+02  0.2654E+02  0.6468E+02  0.5971E+02  0.5968E+02  0.1295E+02  0.1295E+02  0.5754E+01  0.5751E+01  0.0000E+00  0.1541E-01  0.0000E+00  0.0000E+00  0.1137E+00  0.1184E+00  0.5739E+00  0.5625E+00  0.4109E+04  0.4100E+04  0.6097E+03  0.4331E+03  0.0000E+00  0.0000E+00  0.0000E+00  0.0000E+00  0.0000E+00  0.0000E+00  0.0000E+00  0.0000E+00  0.0000E+00  0.0000E+00  0.0000E+00  0.0000E+00  0.0000E+00  0.0000E+00  0.0000E+00  0.0000E+00  0.0000E+00  0.6545E+02  0.1307E+02  0.0000E+00  0.0000E+00
REACH    4        0  2016  0.6813E-01  0.4633E-02  0.4632E-02  0.1372E-05  0.0000E+00  0.4850E+02  0.4850E+02  0.7197E+02  0.9701E+02  0.9696E+02  0.2107E+02  0.2105E+02  0.8954E+01  0.8950E+01  0.0000E+00  0.2757E-01  0.0000E+00  0.0000E+00  0.1920E+00  0.2005E+00  0.8901E+00  0.8723E+00  0.6916E+04  0.6899E+04  0.9789E+03  0.6839E+03  0.0000E+00  0.0000E+00  0.0000E+00  0.0000E+00  0.0000E+00  0.0000E+00  0.0000E+00  0.0000E+00  0.0000E+00  0.0000E+00  0.0000E+00  0.0000E+00  0.0000E+00  0.0000E+00  0.0000E+00  0.0000E+00  0.0000E+00  0.1059E+03  0.2125E+02  0.0000E+00  0.0000E+00
REACH    5        0  2016  0.4463E-01  0.3046E-02  0.3045E-02  0.6988E-06  0.0000E+00  0.2901E+02  0.2901E+02  0.6782E+02  0.5829E+02  0.5827E+02  0.1264E+02  0.1263E+02  0.5733E+01  0.5732E+01  0.0000E+00  0.1410E-01  0.0000E+00  0.0000E+00  0.1309E+00  0.1353E+00  0.5064E+00  0.4975E+00  0.4032E+04  0.4024E+04  0.6588E+03  0.4726E+03  0.0000E+00  0.0000E+00  0.0000E+00  0.0000E+00  0.0000E+00  0.0000E+00  0.0000E+00  0.0000E+00  0.0000E+00  0.0000E+00  0.0000E+00  0.0000E+00  0.0000E+00  0.0000E+00  0.0000E+00  0.0000E+00  0.0000E+00  0.6401E+02  0.1277E+02  0.0000E+00  0.0000E+00
REACH    6        0  2016  0.8526E-01  0.5737E-02  0.5732E-02  0.4204E-05  0.0000E+00  0.3956E+02  0.3956E+02  0.5140E+02  0.1063E+03  0.1062E+03  0.2301E+02  0.2298E+02  0.1149E+02  0.1148E+02  0.0000E+00  0.8561E-01  0.0000E+00  0.0000E+00  0.2812E+00  0.3072E+00  0.1107E+01  0.1050E+01  0.6655E+04  0.6609E+04  0.1242E+04  0.9173E+03  0.0000E+00  0.0000E+00  0.0000E+00  0.0000E+00  0.0000E+00  0.0000E+00  0.0000E+00  0.0000E+00  0.0000E+00  0.0000E+00  0.0000E+00  0.0000E+00  0.0000E+00  0.0000E+00  0.0000E+00  0.0000E+00  0.0000E+00  0.1177E+03  0.2328E+02  0.0000E+00  0.0000E+00
REACH    7        0  2016  0.1545E+00  0.1047E-01  0.1046E-01  0.2543E-05  0.0000E+00  0.9906E+02  0.6784E+02  0.8943E+02  0.2163E+03  0.2162E+03  0.4693E+02  0.4691E+02  0.2068E+02  0.2068E+02  0.4298E-01  0.9383E-01  0.0000E+00  0.7830E-04  0.4540E+00  0.4693E+00  0.2038E+01  0.2010E+01  0.1491E+05  0.1488E+05  0.1748E+04  0.1568E+04  0.0000E+00  0.0000E+00  0.0000E+00  0.0000E+00  0.0000E+00  0.0000E+00  0.0000E+00  0.0000E+00  0.0000E+00  0.0000E+00  0.0000E+00  0.0000E+00  0.0000E+00  0.0000E+00  0.0000E+00  0.0000E+00  0.0000E+00  0.2370E+03  0.4738E+02  0.0000E+00  0.0000E+00
REACH    8        0  2016  0.2618E+00  0.1775E-01  0.1775E-01  0.4597E-05  0.0000E+00  0.1471E+03  0.1175E+03  0.9003E+02  0.3715E+03  0.3713E+03  0.8065E+02  0.8060E+02  0.3502E+02  0.3500E+02  0.1322E+00  0.2365E+00  0.7830E-04  0.2045E-03  0.7499E+00  0.7821E+00  0.3462E+01  0.3415E+01  0.2682E+05  0.2675E+05  0.2791E+04  0.2208E+04  0.0000E+00  0.0000E+00  0.0000E+00  0.0000E+00  0.0000E+00  0.0000E+00  0.0000E+00  0.0000E+00  0.0000E+00  0.0000E+00  0.0000E+00  0.0000E+00  0.0000E+00  0.0000E+00  0.0000E+00  0.0000E+00  0.0000E+00  0.4066E+03  0.8138E+02  0.0000E+00  0.0000E+00
REACH    9        0  2016  0.3682E+00  0.2496E-01  0.2496E-01  0.6273E-05  0.0000E+00  0.1856E+03  0.1961E+03  0.1064E+03  0.5137E+03  0.5136E+03  0.1115E+03  0.1114E+03  0.4881E+02  0.4879E+02  0.2753E+00  0.4272E+00  0.2045E-03  0.3891E-03  0.1093E+01  0.1139E+01  0.4715E+01  0.4651E+01  0.3670E+05  0.3661E+05  0.3392E+04  0.3286E+04  0.0000E+00  0.0000E+00  0.0000E+00  0.0000E+00  0.0000E+00  0.0000E+00  0.0000E+00  0.0000E+00  0.0000E+00  0.0000E+00  0.0000E+00  0.0000E+00  0.0000E+00  0.0000E+00  0.0000E+00  0.0000E+00  0.0000E+00  0.5628E+03  0.1126E+03  0.0000E+00  0.0000E+00
REACH   10        0  2016  0.4236E+00  0.2874E-01  0.2873E-01  0.3375E-05  0.0000E+00  0.2269E+03  0.1954E+03  0.1029E+03  0.5792E+03  0.5791E+03  0.1256E+03  0.1256E+03  0.5554E+02  0.5553E+02  0.4413E+00  0.5339E+00  0.3891E-03  0.4897E-03  0.1334E+01  0.1363E+01  0.5237E+01  0.5201E+01  0.4092E+05  0.4087E+05  0.3933E+04  0.3888E+04  0.0000E+00  0.0000E+00  0.0000E+00  0.0000E+00  0.0000E+00  0.0000E+00  0.0000E+00  0.0000E+00  0.0000E+00  0.0000E+00  0.0000E+00  0.0000E+00  0.0000E+00  0.0000E+00  0.0000E+00  0.0000E+00  0.0000E+00  0.6351E+03  0.1269E+03  0.0000E+00  0.0000E+00
REACH   11        0  2016  0.5356E+00  0.3625E-01  0.3625E-01  0.1684E-05  0.0000E+00  0.2401E+03  0.1442E+03  0.7053E+02  0.7066E+03  0.7065E+03  0.1531E+03  0.1531E+03  0.7073E+02  0.7073E+02  0.6195E+00  0.6976E+00  0.4897E-03  0.5380E-03  0.1873E+01  0.1899E+01  0.6504E+01  0.6480E+01  0.4839E+05  0.4834E+05  0.5216E+04  0.5092E+04  0.0000E+00  0.0000E+00  0.0000E+00  0.0000E+00  0.0000E+00  0.0000E+00  0.0000E+00  0.0000E+00  0.0000E+00  0.0000E+00  0.0000E+00  0.0000E+00  0.0000E+00  0.0000E+00  0.0000E+00  0.0000E+00  0.0000E+00  0.7779E+03  0.1550E+03  0.0000E+00  0.0000E+00
REACH    1        0   4.0  0.7264E-01  0.5745E-02  0.5742E-02  0.2533E-05  0.0000E+00  0.1708E+03  0.1708E+03  0.1546E+03  0.3025E+03  0.3024E+03  0.6623E+02  0.6617E+02  0.1227E+02  0.1226E+02  0.0000E+00  0.1115E+00  0.0000E+00  0.0000E+00  0.2322E+00  0.2701E+00  0.3893E+01  0.3787E+01  0.2813E+05  0.2804E+05  0.1088E+04  0.7027E+03  0.0000E+00  0.0000E+00  0.0000E+00  0.0000E+00  0.0000E+00  0.0000E+00  0.0000E+00  0.0000E+00  0.0000E+00  0.0000E+00  0.0000E+00  0.0000E+00  0.0000E+00  0.0000E+00  0.0000E+00  0.0000E+00  0.0000E+00  0.3147E+03  0.6644E+02  0.0000E+00  0.0000E+00
REACH    2        0   4.0  0.8475E-01  0.6677E-02  0.6674E-02  0.2359E-05  0.0000E+00  0.1910E+03  0.1910E+03  0.1488E+03  0.3520E+03  0.3519E+03  0.7703E+02  0.7698E+02  0.1444E+02  0.1443E+02  0.0000E+00  0.1063E+00  0.0000E+00  0.0000E+00  0.2813E+00  0.3172E+00  0.4575E+01  0.4474E+01  0.3197E+05  0.3188E+05  0.1260E+04  0.8134E+03  0.0000E+00  0.0000E+00  0.0000E+00  0.0000E+00  0.0000E+00  0.0000E+00  0.0000E+00  0.0000E+00  0.0000E+00  0.0000E+00  0.0000E+00  0.0000E+00  0.0000E+00  0.0000E+00  0.0000E+00  0.0000E+00  0.0000E+00  0.3664E+03  0.7730E+02  0.0000E+00  0.0000E+00
REACH    3        0   4.0  0.4248E-01  0.3333E-02  0.3332E-02  0.8891E-06  0.0000E+00  0.8018E+02  0.8018E+02  0.1256E+03  0.1739E+03  0.1739E+03  0.3799E+02  0.3797E+02  0.7366E+01  0.7364E+01  0.0000E+00  0.3644E-01  0.0000E+00  0.0000E+00  0.1533E+00  0.1656E+00  0.2296E+01  0.2256E+01  0.1414E+05  0.1411E+05  0.6291E+03  0.4109E+03  0.0000E+00  0.0000E+00  0.0000E+00  0.0000E+00  0.0000E+00  0.0000E+00  0.0000E+00  0.0000E+00  0.0000E+00  0.0000E+00  0.0000E+00  0.0000E+00  0.0000E+00  0.0000E+00  0.0000E+00  0.0000E+00  0.0000E+00  0.1813E+03  0.3814E+02  0.0000E+00  0.0000E+00
REACH    4        0   4.0  0.6813E-01  0.5379E-02  0.5378E-02  0.1427E-05  0.0000E+00  0.1495E+03  0.1495E+03  0.1442E+03  0.2781E+03  0.2780E+03  0.6087E+02  0.6084E+02  0.1144E+02  0.1144E+02  0.0000E+00  0.6455E-01  0.0000E+00  0.0000E+00  0.2676E+00  0.2896E+00  0.3652E+01  0.3591E+01  0.2489E+05  0.2483E+05  0.1018E+04  0.6578E+03  0.0000E+00  0.0000E+00  0.0000E+00  0.0000E+00  0.0000E+00  0.0000E+00  0.0000E+00  0.0000E+00  0.0000E+00  0.0000E+00  0.0000E+00  0.0000E+00  0.0000E+00  0.0000E+00  0.0000E+00  0.0000E+00  0.0000E+00  0.2895E+03  0.6113E+02  0.0000E+00  0.0000E+00
REACH    5        0   4.0  0.4463E-01  0.3521E-02  0.3520E-02  0.7576E-06  0.0000E+00  0.9160E+02  0.9160E+02  0.1392E+03  0.1742E+03  0.1742E+03  0.3803E+02  0.3801E+02  0.7261E+01  0.7259E+01  0.0000E+00  0.3453E-01  0.0000E+00  0.0000E+00  0.1781E+00  0.1900E+00  0.2221E+01  0.2190E+01  0.1506E+05  0.1503E+05  0.6861E+03  0.4546E+03  0.0000E+00  0.0000E+00  0.0000E+00  0.0000E+00  0.0000E+00  0.0000E+00  0.0000E+00  0.0000E+00  0.0000E+00  0.0000E+00  0.0000E+00  0.0000E+00  0.0000E+00  0.0000E+00  0.0000E+00  0.0000E+00  0.0000E+00  0.1815E+03  0.3820E+02  0.0000E+00  0.0000E+00
REACH    6        0   4.0  0.8526E-01  0.6615E-02  0.6611E-02  0.4229E-05  0.0000E+00  0.1214E+03  0.1214E+03  0.9950E+02  0.3277E+03  0.3274E+03  0.7128E+02  0.7118E+02  0.1451E+02  0.1450E+02  0.0000E+00  0.2158E+00  0.0000E+00  0.0000E+00  0.3733E+00  0.4464E+00  0.4484E+01  0.4290E+01  0.2295E+05  0.2281E+05  0.1267E+04  0.8528E+03  0.0000E+00  0.0000E+00  0.0000E+00  0.0000E+00  0.0000E+00  0.0000E+00  0.0000E+00  0.0000E+00  0.0000E+00  0.0000E+00  0.0000E+00  0.0000E+00  0.0000E+00  0.0000E+00  0.0000E+00  0.0000E+00  0.0000E+00  0.3421E+03  0.7163E+02  0.0000E+00  0.0000E+00
REACH    7        0   4.0  0.1545E+00  0.1214E-01  0.1214E-01  0.2569E-05  0.0000E+00  0.3023E+03  0.8127E+02  0.1003E+03  0.6282E+03  0.6280E+03  0.1373E+03  0.1372E+03  0.2646E+02  0.2646E+02  0.1010E+00  0.2475E+00  0.0000E+00  0.6946E-04  0.6394E+00  0.6904E+00  0.8235E+01  0.8125E+01  0.5225E+05  0.5214E+05  0.1715E+04  0.1491E+04  0.0000E+00  0.0000E+00  0.0000E+00  0.0000E+00  0.0000E+00  0.0000E+00  0.0000E+00  0.0000E+00  0.0000E+00  0.0000E+00  0.0000E+00  0.0000E+00  0.0000E+00  0.0000E+00  0.0000E+00  0.0000E+00  0.0000E+00  0.6547E+03  0.1379E+03  0.0000E+00  0.0000E+00
REACH    8        0   4.0  0.2618E+00  0.2060E-01  0.2060E-01  0.4570E-05  0.0000E+00  0.3181E+03  0.1382E+03  0.1023E+03  0.1072E+04  0.1071E+04  0.2342E+03  0.2341E+03  0.4472E+02  0.4471E+02  0.3590E+00  0.6715E+00  0.6946E-04  0.1950E-03  0.1092E+01  0.1200E+01  0.1383E+02  0.1364E+02  0.9242E+05  0.9217E+05  0.2703E+04  0.2178E+04  0.0000E+00  0.0000E+00  0.0000E+00  0.0000E+00  0.0000E+00  0.0000E+00  0.0000E+00  0.0000E+00  0.0000E+00  0.0000E+00  0.0000E+00  0.0000E+00  0.0000E+00  0.0000E+00  0.0000E+00  0.0000E+00  0.0000E+00  0.1117E+04  0.2353E+03  0.0000E+00  0.0000E+00
REACH    9        0   4.0  0.3682E+00  0.2894E-01  0.2893E-01  0.6279E-05  0.0000E+00  0.3476E+03  0.2299E+03  0.1190E+03  0.1491E+04  0.1490E+04  0.3256E+03  0.3254E+03  0.6225E+02  0.6223E+02  0.7778E+00  0.1216E+01  0.1950E-03  0.3695E-03  0.1643E+01  0.1794E+01  0.1905E+02  0.1880E+02  0.1276E+06  0.1272E+06  0.3336E+04  0.3213E+04  0.0000E+00  0.0000E+00  0.0000E+00  0.0000E+00  0.0000E+00  0.0000E+00  0.0000E+00  0.0000E+00  0.0000E+00  0.0000E+00  0.0000E+00  0.0000E+00  0.0000E+00  0.0000E+00  0.0000E+00  0.0000E+00  0.0000E+00  0.1553E+04  0.3272E+03  0.0000E+00  0.0000E+00
REACH   10        0   4.0  0.4236E+00  0.3327E-01  0.3327E-01  0.3438E-05  0.0000E+00  0.3276E+03  0.2337E+03  0.1114E+03  0.1692E+04  0.1692E+04  0.3694E+03  0.3693E+03  0.7074E+02  0.7073E+02  0.1251E+01  0.1507E+01  0.3695E-03  0.4872E-03  0.2064E+01  0.2152E+01  0.2144E+02  0.2131E+02  0.1434E+06  0.1432E+06  0.3844E+04  0.3791E+04  0.0000E+00  0.0000E+00  0.0000E+00  0.0000E+00  0.0000E+00  0.0000E+00  0.0000E+00  0.0000E+00  0.0000E+00  0.0000E+00  0.0000E+00  0.0000E+00  0.0000E+00  0.0000E+00  0.0000E+00  0.0000E+00  0.0000E+00  0.1764E+04  0.3714E+03  0.0000E+00  0.0000E+00
REACH   11        0   4.0  0.5356E+00  0.4191E-01  0.4191E-01  0.1739E-05  0.0000E+00  0.3709E+03  0.1765E+03  0.7661E+02  0.2092E+04  0.2091E+04  0.4560E+03  0.4559E+03  0.8963E+02  0.8963E+02  0.1723E+01  0.1910E+01  0.4872E-03  0.5553E-03  0.2876E+01  0.2942E+01  0.2671E+02  0.2663E+02  0.1693E+06  0.1692E+06  0.5063E+04  0.4919E+04  0.0000E+00  0.0000E+00  0.0000E+00  0.0000E+00  0.0000E+00  0.0000E+00  0.0000E+00  0.0000E+00  0.0000E+00  0.0000E+00  0.0000E+00  0.0000E+00  0.0000E+00  0.0000E+00  0.0000E+00  0.0000E+00  0.0000E+00  0.2183E+04  0.4588E+03  0.0000E+00  0.0000E+00
