1
    SWAT Dec 23 2016    VER 2016/Rev 664                                                                 0/ 0/   0      0: 0: 0

    General Input/Output section (file.cio):                                        
    2/7/2020 21:40:12 QSWAT Workflow v1.5.2                                         
                                                                                    
         Number of years in run:   12
         Area of watershed:        1.363 km2
         Random number generator cycles: 0, use default numbers

         Initial random number seed: wet/dry day prob        748932582
         Initial random number seed: radiation              1948832765
         Initial random number seed: precipitation           857034417
         Initial random number seed: 0.5 hr rainfall          67377721
         Initial random number seed: wind speed              366304404
         Initial random number seed: irrigation             1094585182
         Initial random number seed: relative humidity      1767585417
         Initial random number seed: max temperature         608439319
         Initial random number seed: min temperature         592757081

         Precipitation data used in run:
          Multiple gages read for watershed
             Daily rainfall data used

         Temperature data used in run:
          Multiple gages read for watershed

         PET method used: Penman-Monteith

         Rainfall/Runoff/Routing Option:
          Daily rainfall data
          Runoff estimated with curve number method
          Daily stream routing
           Variable Storage routing method
           Channel dimensions remain constant
           Subbasin algae/CBOD loadings not modeled
           In-stream nutrient transformations modeled using QUAL2E equations

         Subbasin Input Summary:
          Sub Latitude  Elev(m) #HRUs Ponds Elevbnds Wetlnd
            1   -14.29   162.89     5                   
            2   -14.29   175.41     8                   
            3   -14.29   217.28     2                   
            4   -14.29   326.72     5                   
            5   -14.29   219.54     7                   
            6   -14.29   157.40     7                   
            7   -14.29   151.60    11                   
            8   -14.29    71.49    11                   
            9   -14.29    50.95     8                   

         HRU Input Summary Table 1:
          Sub   HRU   Area(ha) Slope SlpLgth(m) Ovrlnd_N CondII_CN TimeConc(hr) ESCO EPCO
            1      1       6.86 0.453       9.15    0.100     55.00        0.081 0.95 1.00
            1      2       0.02 0.005     121.95    0.100     70.00        1.222 0.95 1.00
            1      3      17.20 0.660       9.15    0.100     70.00        0.090 0.95 1.00
            1      4       0.15 0.502       9.15    0.140     77.00        0.080 0.95 1.00
            1      5       0.18 0.578       9.15    0.140     83.00        0.077 0.95 1.00
            2      6       0.03 0.173      18.29    0.100     59.00        0.135 0.95 1.00
            2      7       0.01 0.011     121.95    0.100     55.00        0.965 0.95 1.00
            2      8       2.74 0.486       9.15    0.100     55.00        0.073 0.95 1.00
            2      9       9.92 0.662       9.15    0.100     70.00        0.082 0.95 1.00
            2     10       0.24 1.000       9.15    0.100     77.00        0.054 0.95 1.00
            2     11       0.07 0.292       9.15    0.100     77.00        0.077 0.95 1.00
            2     12       0.38 0.688       9.15    0.100     77.00        0.060 0.95 1.00
            2     13       0.09 0.626       9.15    0.100     77.00        0.061 0.95 1.00
            3     14       3.58 0.436       9.15    0.100     55.00        0.078 0.95 1.00
            3     15       9.15 0.565       9.15    0.100     70.00        0.085 0.95 1.00
            4     16       1.56 0.486       9.15    0.100     55.00        0.069 0.95 1.00
            4     17       8.26 0.881       9.15    0.100     70.00        0.072 0.95 1.00
            4     18       0.02 1.000       9.15    0.140     91.00        0.065 0.95 1.00
            4     19       9.10 0.935       9.15    0.100     77.00        0.072 0.95 1.00
            4     20       0.01 0.129      24.39    0.140     77.00        0.215 0.95 1.00
            5     21       0.02 0.820       9.15    0.100     72.00        0.056 0.95 1.00
            5     22       2.34 0.557       9.15    0.100     55.00        0.068 0.95 1.00
            5     23       0.01 0.000     121.95    0.100     70.00        3.952 0.95 1.00
            5     24       0.05 0.024      91.46    0.100     70.00        0.642 0.95 1.00
            5     25      21.00 0.439       9.15    0.100     70.00        0.100 0.95 1.00
            5     26       0.04 0.821       9.15    0.140     91.00        0.069 0.95 1.00
            5     27       2.09 0.741       9.15    0.100     77.00        0.062 0.95 1.00
            6     28       0.04 0.024      91.46    0.100     55.00        0.643 0.95 1.00
            6     29       5.88 0.378       9.15    0.100     55.00        0.088 0.95 1.00
            6     30       0.01 0.029      91.46    0.100     70.00        0.607 0.95 1.00
            6     31       9.24 0.572       9.15    0.100     70.00        0.088 0.95 1.00
            6     32       0.12 0.827       9.15    0.100     77.00        0.056 0.95 1.00
            6     33       0.01 0.248      15.24    0.100     77.00        0.109 0.95 1.00
            6     34       0.01 0.117      60.98    0.140     77.00        0.383 0.95 1.00
            7     35       0.02 0.274       9.15    0.140     77.00        0.095 0.95 1.00
            7     36       0.48 0.601       9.15    0.140     77.00        0.077 0.95 1.00
            7     37       0.06 0.305       9.15    0.140     77.00        0.092 0.95 1.00
            7     38       0.12 0.407       9.15    0.140     77.00        0.085 0.95 1.00
            7     39       0.79 0.186      18.29    0.140     77.00        0.164 0.95 1.00
            7     40       0.03 1.000       9.15    0.100     72.00        0.053 0.95 1.00
            7     41       3.36 0.520       9.15    0.100     55.00        0.073 0.95 1.00
            7     42       6.86 0.719       9.15    0.100     70.00        0.074 0.95 1.00
            7     43       0.02 0.257       9.15    0.100     66.00        0.079 0.95 1.00
            7     44       1.35 1.000       9.15    0.100     77.00        0.057 0.95 1.00
            7     45       0.04 0.448       9.15    0.140     91.00        0.082 0.95 1.00
            8     46       0.44 0.184      18.29    0.140     91.00        0.165 0.95 1.00
            8     47       0.06 0.264       9.15    0.140     91.00        0.097 0.95 1.00
            8     48       0.15 0.602       9.15    0.140     77.00        0.076 0.95 1.00
            8     49       0.13 0.591       9.15    0.140     83.00        0.076 0.95 1.00
            8     50       0.09 0.155      24.39    0.100     59.00        0.167 0.95 1.00
            8     51       0.01 0.631       9.15    0.100     72.00        0.061 0.95 1.00
            8     52       0.01 0.000     121.95    0.100     55.00        3.952 0.95 1.00
            8     53       0.05 0.023      91.46    0.100     55.00        0.651 0.95 1.00
            8     54       6.86 0.425       9.15    0.100     55.00        0.095 0.95 1.00
            8     55       1.18 0.554       9.15    0.100     70.00        0.069 0.95 1.00
            8     56       0.01 0.183      18.29    0.140     86.00        0.163 0.95 1.00
            9     57       0.05 0.559       9.15    0.100     72.00        0.063 0.95 1.00
            9     58       1.88 0.305       9.15    0.100     55.00        0.087 0.95 1.00
            9     59       1.26 0.574       9.15    0.100     70.00        0.071 0.95 1.00
            9     60       0.18 0.073      60.98    0.100     77.00        0.362 0.95 1.00
            9     61       0.09 0.140      24.39    0.100     77.00        0.172 0.95 1.00
            9     62       0.02 0.136      24.39    0.100     77.00        0.173 0.95 1.00
            9     63       0.16 0.262       9.15    0.100     77.00        0.080 0.95 1.00
            9     64       0.06 0.096      60.98    0.100     77.00        0.333 0.95 1.00

         HRU CN Input Summary Table:
          Sub   HRU   Area(ha)  LULC      Soil    CN1    CN2    CN3  Wilting Point (mm H2O)  Field Capacity (mm H2O)  Saturation (mm H2O)
            1      1       6.86  FRSE  AUA        35.3   55.0   74.5                   211.7                    165.8                763.4
            1      2       0.02  FRSE  FAGASA     51.2   70.0   85.7                   132.2                     97.2                365.5
            1      3      17.20  FRSE  FAGASA     51.2   70.0   85.7                   132.2                     97.2                365.5
            1      4       0.15  AGRL  AUA        59.3   77.0   89.9                   211.7                    165.8                763.4
            1      5       0.18  AGRL  FAGASA     67.0   83.0   93.1                   132.2                     97.2                365.5
            2      6       0.03  SWCH  AUA        39.4   59.0   77.7                   211.7                    165.8                763.4
            2      7       0.01  FRSE  AUA        35.3   55.0   74.5                   211.7                    165.8                763.4
            2      8       2.74  FRSE  AUA        35.3   55.0   74.5                   211.7                    165.8                763.4
            2      9       9.92  FRSE  FAGASA     51.2   70.0   85.7                   132.2                     97.2                365.5
            2     10       0.24  FRSD  FAGASA     59.3   77.0   89.9                   132.2                     97.2                365.5
            2     11       0.07  FRSD  AUA        59.3   77.0   89.9                   211.7                    165.8                763.4
            2     12       0.38  FRSD  FAGASA     59.3   77.0   89.9                   132.2                     97.2                365.5
            2     13       0.09  FRSD  FAGASA     59.3   77.0   89.9                   132.2                     97.2                365.5
            3     14       3.58  FRSE  AUA        35.3   55.0   74.5                   211.7                    165.8                763.4
            3     15       9.15  FRSE  FAGASA     51.2   70.0   85.7                   132.2                     97.2                365.5
            4     16       1.56  FRSE  AUA        35.3   55.0   74.5                   211.7                    165.8                763.4
            4     17       8.26  FRSE  FAGASA     51.2   70.0   85.7                   132.2                     97.2                365.5
            4     18       0.02  BARR  FAGASA     79.8   91.0   96.7                   132.2                     97.2                365.5
            4     19       9.10  FRSD  FAGASA     59.3   77.0   89.9                   132.2                     97.2                365.5
            4     20       0.01  AGRL  AUA        59.3   77.0   89.9                   211.7                    165.8                763.4
            5     21       0.02  SWCH  FAGASA     53.4   72.0   86.9                   132.2                     97.2                365.5
            5     22       2.34  FRSE  AUA        35.3   55.0   74.5                   211.7                    165.8                763.4
            5     23       0.01  FRSE  FAGASA     51.2   70.0   85.7                   132.2                     97.2                365.5
            5     24       0.05  FRSE  FAGASA     51.2   70.0   85.7                   132.2                     97.2                365.5
            5     25      21.00  FRSE  FAGASA     51.2   70.0   85.7                   132.2                     97.2                365.5
            5     26       0.04  BARR  FAGASA     79.8   91.0   96.7                   132.2                     97.2                365.5
            5     27       2.09  FRSD  FAGASA     59.3   77.0   89.9                   132.2                     97.2                365.5
            6     28       0.04  FRSE  AUA        35.3   55.0   74.5                   211.7                    165.8                763.4
            6     29       5.88  FRSE  AUA        35.3   55.0   74.5                   211.7                    165.8                763.4
            6     30       0.01  FRSE  FAGASA     51.2   70.0   85.7                   132.2                     97.2                365.5
            6     31       9.24  FRSE  FAGASA     51.2   70.0   85.7                   132.2                     97.2                365.5
            6     32       0.12  FRSD  FAGASA     59.3   77.0   89.9                   132.2                     97.2                365.5
            6     33       0.01  FRSD  AUA        59.3   77.0   89.9                   211.7                    165.8                763.4
            6     34       0.01  AGRL  AUA        59.3   77.0   89.9                   211.7                    165.8                763.4
            7     35       0.02  AGRL  AUA        59.3   77.0   89.9                   211.7                    165.8                763.4
            7     36       0.48  AGRL  FAGASA     59.3   77.0   89.9                   132.2                     97.2                365.5
            7     37       0.06  AGRL  AUA        59.3   77.0   89.9                   211.7                    165.8                763.4
            7     38       0.12  AGRL  FAGASA     59.3   77.0   89.9                   132.2                     97.2                365.5
            7     39       0.79  AGRL  AUA        59.3   77.0   89.9                   211.7                    165.8                763.4
            7     40       0.03  SWCH  FAGASA     53.4   72.0   86.9                   132.2                     97.2                365.5
            7     41       3.36  FRSE  AUA        35.3   55.0   74.5                   211.7                    165.8                763.4
            7     42       6.86  FRSE  FAGASA     51.2   70.0   85.7                   132.2                     97.2                365.5
            7     43       0.02  FRSD  AUA        46.8   66.0   83.0                   211.7                    165.8                763.4
            7     44       1.35  FRSD  FAGASA     59.3   77.0   89.9                   132.2                     97.2                365.5
            7     45       0.04  BARR  FAGASA     79.8   91.0   96.7                   132.2                     97.2                365.5
            8     46       0.44  BARR  AUA        79.8   91.0   96.7                   211.7                    165.8                763.4
            8     47       0.06  BARR  AUA        79.8   91.0   96.7                   211.7                    165.8                763.4
            8     48       0.15  AGRL  AUA        59.3   77.0   89.9                   211.7                    165.8                763.4
            8     49       0.13  AGRL  FAGASA     67.0   83.0   93.1                   132.2                     97.2                365.5
            8     50       0.09  SWCH  AUA        39.4   59.0   77.7                   211.7                    165.8                763.4
            8     51       0.01  SWCH  FAGASA     53.4   72.0   86.9                   132.2                     97.2                365.5
            8     52       0.01  FRSE  AUA        35.3   55.0   74.5                   211.7                    165.8                763.4
            8     53       0.05  FRSE  AUA        35.3   55.0   74.5                   211.7                    165.8                763.4
            8     54       6.86  FRSE  AUA        35.3   55.0   74.5                   211.7                    165.8                763.4
            8     55       1.18  FRSE  FAGASA     51.2   70.0   85.7                   132.2                     97.2                365.5
            8     56       0.01  BARR  AUA        71.4   86.0   94.5                   211.7                    165.8                763.4
            9     57       0.05  SWCH  FAGASA     53.4   72.0   86.9                   132.2                     97.2                365.5
            9     58       1.88  FRSE  AUA        35.3   55.0   74.5                   211.7                    165.8                763.4
            9     59       1.26  FRSE  FAGASA     51.2   70.0   85.7                   132.2                     97.2                365.5
            9     60       0.18  FRSE  URBAN LA   59.3   77.0   89.9                     0.8                      1.5                 75.7
            9     61       0.09  FRSE  AUA        59.3   77.0   89.9                   211.7                    165.8                763.4
            9     62       0.02  FRSE  URBAN LA   59.3   77.0   89.9                     0.8                      1.5                 75.7
            9     63       0.16  FRSE  AUA        59.3   77.0   89.9                   211.7                    165.8                763.4
            9     64       0.06  FRSE  URBAN LA   59.3   77.0   89.9                     0.8                      1.5                 75.7

         HRU Input Summary Table 2:
          Sub   HRU   Area(ha)         SoilName Hydgrp MaxRtDpth(mm) Albedo USLE_K USLE_P USLE_LS ProfileAWC(mm) IniSoilH2O(mm)
            1      1       6.86 AUA                B          1520.00   0.16   0.17   1.00    7.70    165.800        121.506
            1      2       0.02 FAGASA             C           840.00   0.16   0.10   1.00    0.11     97.200         71.232
            1      3      17.20 FAGASA             C           840.00   0.16   0.10   1.00   13.20     97.200         71.232
            1      4       0.15 AUA                B          1520.00   0.16   0.17   1.00    8.99    165.800        121.506
            1      5       0.18 FAGASA             C           840.00   0.16   0.10   1.00   11.02     97.200         71.232
            2      6       0.03 AUA                B          1520.00   0.16   0.17   1.00    2.45    165.800        121.506
            2      7       0.01 AUA                B          1520.00   0.16   0.17   1.00    0.17    165.800        121.506
            2      8       2.74 AUA                B          1520.00   0.16   0.17   1.00    8.57    165.800        121.506
            2      9       9.92 FAGASA             C           840.00   0.16   0.10   1.00   13.25     97.200         71.232
            2     10       0.24 FAGASA             C           840.00   0.16   0.10   1.00   21.18     97.200         71.232
            2     11       0.07 AUA                B          1520.00   0.16   0.17   1.00    3.82    165.800        121.506
            2     12       0.38 FAGASA             C           840.00   0.16   0.10   1.00   13.93     97.200         71.232
            2     13       0.09 FAGASA             C           840.00   0.16   0.10   1.00   12.30     97.200         71.232
            3     14       3.58 AUA                B          1520.00   0.16   0.17   1.00    7.26    165.800        121.506
            3     15       9.15 FAGASA             C           840.00   0.16   0.10   1.00   10.67     97.200         71.232
            4     16       1.56 AUA                B          1520.00   0.16   0.17   1.00    8.57    165.800        121.506
            4     17       8.26 FAGASA             C           840.00   0.16   0.10   1.00   18.63     97.200         71.232
            4     18       0.02 FAGASA             C           100.00   0.16   0.10   1.00   21.18     97.200         71.232
            4     19       9.10 FAGASA             C           840.00   0.16   0.10   1.00   19.83     97.200         71.232
            4     20       0.01 AUA                B          1520.00   0.16   0.17   1.00    1.82    165.800        121.506
            5     21       0.02 FAGASA             C           840.00   0.16   0.10   1.00   17.22     97.200         71.232
            5     22       2.34 AUA                B          1520.00   0.16   0.17   1.00   10.46    165.800        121.506
            5     23       0.01 FAGASA             C           840.00   0.16   0.10   1.00    0.07     97.200         71.232
            5     24       0.05 FAGASA             C           840.00   0.16   0.10   1.00    0.35     97.200         71.232
            5     25      21.00 FAGASA             C           840.00   0.16   0.10   1.00    7.34     97.200         71.232
            5     26       0.04 FAGASA             C           100.00   0.16   0.10   1.00   17.24     97.200         71.232
            5     27       2.09 FAGASA             C           840.00   0.16   0.10   1.00   15.28     97.200         71.232
            6     28       0.04 AUA                B          1520.00   0.16   0.17   1.00    0.35    165.800        121.506
            6     29       5.88 AUA                B          1520.00   0.16   0.17   1.00    5.80    165.800        121.506
            6     30       0.01 FAGASA             C           840.00   0.16   0.10   1.00    0.44     97.200         71.232
            6     31       9.24 FAGASA             C           840.00   0.16   0.10   1.00   10.86     97.200         71.232
            6     32       0.12 FAGASA             C           840.00   0.16   0.10   1.00   17.38     97.200         71.232
            6     33       0.01 AUA                B          1520.00   0.16   0.17   1.00    3.96    165.800        121.506
            6     34       0.01 AUA                B          1520.00   0.16   0.17   1.00    2.69    165.800        121.506
            7     35       0.02 AUA                B          1520.00   0.16   0.17   1.00    3.44    165.800        121.506
            7     36       0.48 FAGASA             C           840.00   0.16   0.10   1.00   11.64     97.200         71.232
            7     37       0.06 AUA                B          1520.00   0.16   0.17   1.00    4.10    165.800        121.506
            7     38       0.12 FAGASA             C           840.00   0.16   0.10   1.00    6.52     97.200         71.232
            7     39       0.79 AUA                B          1520.00   0.16   0.17   1.00    2.75    165.800        121.506
            7     40       0.03 FAGASA             C           840.00   0.16   0.10   1.00   21.18     97.200         71.232
            7     41       3.36 AUA                B          1520.00   0.16   0.17   1.00    9.47    165.800        121.506
            7     42       6.86 FAGASA             C           840.00   0.16   0.10   1.00   14.72     97.200         71.232
            7     43       0.02 AUA                B          1520.00   0.16   0.17   1.00    3.09    165.800        121.506
            7     44       1.35 FAGASA             C           840.00   0.16   0.10   1.00   21.18     97.200         71.232
            7     45       0.04 FAGASA             C           100.00   0.16   0.10   1.00    7.57     97.200         71.232
            8     46       0.44 AUA                B           100.00   0.16   0.17   1.00    2.71    165.800        121.506
            8     47       0.06 AUA                B           100.00   0.16   0.17   1.00    3.23    165.800        121.506
            8     48       0.15 AUA                B          1520.00   0.16   0.17   1.00   11.66    165.800        121.506
            8     49       0.13 FAGASA             C           840.00   0.16   0.10   1.00   11.37     97.200         71.232
            8     50       0.09 AUA                B          1520.00   0.16   0.17   1.00    2.44    165.800        121.506
            8     51       0.01 FAGASA             C           840.00   0.16   0.10   1.00   12.43     97.200         71.232
            8     52       0.01 AUA                B          1520.00   0.16   0.17   1.00    0.07    165.800        121.506
            8     53       0.05 AUA                B          1520.00   0.16   0.17   1.00    0.33    165.800        121.506
            8     54       6.86 AUA                B          1520.00   0.16   0.17   1.00    6.98    165.800        121.506
            8     55       1.18 FAGASA             C           840.00   0.16   0.10   1.00   10.38     97.200         71.232
            8     56       0.01 AUA                B           100.00   0.16   0.17   1.00    2.68    165.800        121.506
            9     57       0.05 FAGASA             C           840.00   0.16   0.10   1.00   10.51     97.200         71.232
            9     58       1.88 AUA                B          1520.00   0.16   0.17   1.00    4.10    165.800        121.506
            9     59       1.26 FAGASA             C           840.00   0.16   0.10   1.00   10.91     97.200         71.232
            9     60       0.18 URBAN LAND         D           150.00   0.16   0.00   1.00    1.31      1.500          1.099
            9     61       0.09 AUA                B          1520.00   0.16   0.17   1.00    2.07    165.800        121.506
            9     62       0.02 URBAN LAND         D           150.00   0.16   0.00   1.00    1.98      1.500          1.099
            9     63       0.16 AUA                B          1520.00   0.16   0.17   1.00    3.19    165.800        121.506
            9     64       0.06 URBAN LAND         D           150.00   0.16   0.00   1.00    1.98      1.500          1.099

         HRU Input Summary Table 3:
          Sub   HRU   Area(ha) Urban Irrig DrainTiles Pothole Pstcide Biomix Septic
            1      1       6.86                                          0.20 x
            1      2       0.02                                          0.20 x
            1      3      17.20                                          0.20 x
            1      4       0.15                                          0.20 x
            1      5       0.18                                          0.20 x
            2      6       0.03                                          0.20 x
            2      7       0.01                                          0.20 x
            2      8       2.74                                          0.20 x
            2      9       9.92                                          0.20 x
            2     10       0.24                                          0.20 x
            2     11       0.07                                          0.20 x
            2     12       0.38                                          0.20 x
            2     13       0.09                                          0.20 x
            3     14       3.58                                          0.20 x
            3     15       9.15                                          0.20 x
            4     16       1.56                                          0.20 x
            4     17       8.26                                          0.20 x
            4     18       0.02                                          0.20 x
            4     19       9.10                                          0.20 x
            4     20       0.01                                          0.20 x
            5     21       0.02                                          0.20 x
            5     22       2.34                                          0.20 x
            5     23       0.01                                          0.20 x
            5     24       0.05                                          0.20 x
            5     25      21.00                                          0.20 x
            5     26       0.04                                          0.20 x
            5     27       2.09                                          0.20 x
            6     28       0.04                                          0.20 x
            6     29       5.88                                          0.20 x
            6     30       0.01                                          0.20 x
            6     31       9.24                                          0.20 x
            6     32       0.12                                          0.20 x
            6     33       0.01                                          0.20 x
            6     34       0.01                                          0.20 x
            7     35       0.02                                          0.20 x
            7     36       0.48                                          0.20 x
            7     37       0.06                                          0.20 x
            7     38       0.12                                          0.20 x
            7     39       0.79                                          0.20 x
            7     40       0.03                                          0.20 x
            7     41       3.36                                          0.20 x
            7     42       6.86                                          0.20 x
            7     43       0.02                                          0.20 x
            7     44       1.35                                          0.20 x
            7     45       0.04                                          0.20 x
            8     46       0.44                                          0.20 x
            8     47       0.06                                          0.20 x
            8     48       0.15                                          0.20 x
            8     49       0.13                                          0.20 x
            8     50       0.09                                          0.20 x
            8     51       0.01                                          0.20 x
            8     52       0.01                                          0.20 x
            8     53       0.05                                          0.20 x
            8     54       6.86                                          0.20 x
            8     55       1.18                                          0.20 x
            8     56       0.01                                          0.20 x
            9     57       0.05                                          0.20 x
            9     58       1.88                                          0.20 x
            9     59       1.26                                          0.20 x
            9     60       0.18                                          0.20 x
            9     61       0.09                                          0.20 x
            9     62       0.02                                          0.20 x
            9     63       0.16                                          0.20 x
            9     64       0.06                                          0.20 x

         HRU Input Summary Table 4 (Groundwater):
          Sub   HRU   Area(ha) GWdelay(days), GWalpha(days) GWQmin(mm) GWrevap Revapmin(mm) Deepfr NO3(ppm) SolP(ppm)
            1      1       6.86        31.000         0.048   1000.000   0.020      750.000  0.050    0.000     0.000
            1      2       0.02        31.000         0.048   1000.000   0.020      750.000  0.050    0.000     0.000
            1      3      17.20        31.000         0.048   1000.000   0.020      750.000  0.050    0.000     0.000
            1      4       0.15        31.000         0.048   1000.000   0.020      750.000  0.050    0.000     0.000
            1      5       0.18        31.000         0.048   1000.000   0.020      750.000  0.050    0.000     0.000
            2      6       0.03        31.000         0.048   1000.000   0.020      750.000  0.050    0.000     0.000
            2      7       0.01        31.000         0.048   1000.000   0.020      750.000  0.050    0.000     0.000
            2      8       2.74        31.000         0.048   1000.000   0.020      750.000  0.050    0.000     0.000
            2      9       9.92        31.000         0.048   1000.000   0.020      750.000  0.050    0.000     0.000
            2     10       0.24        31.000         0.048   1000.000   0.020      750.000  0.050    0.000     0.000
            2     11       0.07        31.000         0.048   1000.000   0.020      750.000  0.050    0.000     0.000
            2     12       0.38        31.000         0.048   1000.000   0.020      750.000  0.050    0.000     0.000
            2     13       0.09        31.000         0.048   1000.000   0.020      750.000  0.050    0.000     0.000
            3     14       3.58        31.000         0.048   1000.000   0.020      750.000  0.050    0.000     0.000
            3     15       9.15        31.000         0.048   1000.000   0.020      750.000  0.050    0.000     0.000
            4     16       1.56        31.000         0.048   1000.000   0.020      750.000  0.050    0.000     0.000
            4     17       8.26        31.000         0.048   1000.000   0.020      750.000  0.050    0.000     0.000
            4     18       0.02        31.000         0.048   1000.000   0.020      750.000  0.050    0.000     0.000
            4     19       9.10        31.000         0.048   1000.000   0.020      750.000  0.050    0.000     0.000
            4     20       0.01        31.000         0.048   1000.000   0.020      750.000  0.050    0.000     0.000
            5     21       0.02        31.000         0.048   1000.000   0.020      750.000  0.050    0.000     0.000
            5     22       2.34        31.000         0.048   1000.000   0.020      750.000  0.050    0.000     0.000
            5     23       0.01        31.000         0.048   1000.000   0.020      750.000  0.050    0.000     0.000
            5     24       0.05        31.000         0.048   1000.000   0.020      750.000  0.050    0.000     0.000
            5     25      21.00        31.000         0.048   1000.000   0.020      750.000  0.050    0.000     0.000
            5     26       0.04        31.000         0.048   1000.000   0.020      750.000  0.050    0.000     0.000
            5     27       2.09        31.000         0.048   1000.000   0.020      750.000  0.050    0.000     0.000
            6     28       0.04        31.000         0.048   1000.000   0.020      750.000  0.050    0.000     0.000
            6     29       5.88        31.000         0.048   1000.000   0.020      750.000  0.050    0.000     0.000
            6     30       0.01        31.000         0.048   1000.000   0.020      750.000  0.050    0.000     0.000
            6     31       9.24        31.000         0.048   1000.000   0.020      750.000  0.050    0.000     0.000
            6     32       0.12        31.000         0.048   1000.000   0.020      750.000  0.050    0.000     0.000
            6     33       0.01        31.000         0.048   1000.000   0.020      750.000  0.050    0.000     0.000
            6     34       0.01        31.000         0.048   1000.000   0.020      750.000  0.050    0.000     0.000
            7     35       0.02        31.000         0.048   1000.000   0.020      750.000  0.050    0.000     0.000
            7     36       0.48        31.000         0.048   1000.000   0.020      750.000  0.050    0.000     0.000
            7     37       0.06        31.000         0.048   1000.000   0.020      750.000  0.050    0.000     0.000
            7     38       0.12        31.000         0.048   1000.000   0.020      750.000  0.050    0.000     0.000
            7     39       0.79        31.000         0.048   1000.000   0.020      750.000  0.050    0.000     0.000
            7     40       0.03        31.000         0.048   1000.000   0.020      750.000  0.050    0.000     0.000
            7     41       3.36        31.000         0.048   1000.000   0.020      750.000  0.050    0.000     0.000
            7     42       6.86        31.000         0.048   1000.000   0.020      750.000  0.050    0.000     0.000
            7     43       0.02        31.000         0.048   1000.000   0.020      750.000  0.050    0.000     0.000
            7     44       1.35        31.000         0.048   1000.000   0.020      750.000  0.050    0.000     0.000
            7     45       0.04        31.000         0.048   1000.000   0.020      750.000  0.050    0.000     0.000
            8     46       0.44        31.000         0.048   1000.000   0.020      750.000  0.050    0.000     0.000
            8     47       0.06        31.000         0.048   1000.000   0.020      750.000  0.050    0.000     0.000
            8     48       0.15        31.000         0.048   1000.000   0.020      750.000  0.050    0.000     0.000
            8     49       0.13        31.000         0.048   1000.000   0.020      750.000  0.050    0.000     0.000
            8     50       0.09        31.000         0.048   1000.000   0.020      750.000  0.050    0.000     0.000
            8     51       0.01        31.000         0.048   1000.000   0.020      750.000  0.050    0.000     0.000
            8     52       0.01        31.000         0.048   1000.000   0.020      750.000  0.050    0.000     0.000
            8     53       0.05        31.000         0.048   1000.000   0.020      750.000  0.050    0.000     0.000
            8     54       6.86        31.000         0.048   1000.000   0.020      750.000  0.050    0.000     0.000
            8     55       1.18        31.000         0.048   1000.000   0.020      750.000  0.050    0.000     0.000
            8     56       0.01        31.000         0.048   1000.000   0.020      750.000  0.050    0.000     0.000
            9     57       0.05        31.000         0.048   1000.000   0.020      750.000  0.050    0.000     0.000
            9     58       1.88        31.000         0.048   1000.000   0.020      750.000  0.050    0.000     0.000
            9     59       1.26        31.000         0.048   1000.000   0.020      750.000  0.050    0.000     0.000
            9     60       0.18        31.000         0.048   1000.000   0.020      750.000  0.050    0.000     0.000
            9     61       0.09        31.000         0.048   1000.000   0.020      750.000  0.050    0.000     0.000
            9     62       0.02        31.000         0.048   1000.000   0.020      750.000  0.050    0.000     0.000
            9     63       0.16        31.000         0.048   1000.000   0.020      750.000  0.050    0.000     0.000
            9     64       0.06        31.000         0.048   1000.000   0.020      750.000  0.050    0.000     0.000

         Tributary/Main Channel Characteristics
              |--------------Tributary--------------------|---------------------Main---------------------------|
          Sub  Length(km) Slope Width(m) Cond(mm/hr)     N Length(km) Slope Width(m) Depth(m) Cond(mm/hr)     N
            1        0.87 0.291     0.55      0.0000 0.014       0.39 0.157     0.55     0.07      0.0000 0.014
            2        0.64 0.410     0.39      0.0000 0.014       0.04 0.102     0.39     0.06      0.0000 0.014
            3        0.62 0.347     0.38      0.0000 0.014       0.17 0.312     0.38     0.06      0.0000 0.014
            4        0.88 0.513     0.48      0.0000 0.014       0.34 0.234     0.48     0.07      0.0000 0.014
            5        0.89 0.369     0.57      0.0000 0.014       0.33 0.342     0.57     0.08      0.0000 0.014
            6        0.77 0.282     0.42      0.0000 0.014       0.35 0.086     0.89     0.10      0.0000 0.014
            7        0.72 0.594     0.38      0.0000 0.014       0.20 0.108     1.18     0.12      0.0000 0.014
            8        0.61 0.274     0.30      0.0000 0.014       0.27 0.065     1.35     0.13      0.0000 0.014
            9        0.40 0.406     0.18      0.0000 0.014       0.11 0.062     1.55     0.15      0.0000 0.014
