1
    SWAT Dec 23 2016    VER 2016/Rev 664                                                                 0/ 0/   0      0: 0: 0

    General Input/Output section (file.cio):                                        
    2/7/2020 21:40:12 QSWAT Workflow v1.5.2                                         
                                                                                    


       SUB      GIS  MON   AREAkm2  PRECIPmm SNOMELTmm     PETmm      ETmm      SWmm    PERCmm    SURQmm    GW_Qmm    WYLDmm  SYLDt/ha ORGNkg/ha ORGPkg/haNSURQkg/ha SOLPkg/ha SEDPkg/ha LAT Q(mm)LATNO3kg/hGWNO3kg/haCHOLAmic/LCBODU mg/L DOXQ mg/L TNO3kg/ha   QTILEmm TVAPkg/ha
BIGSUB   1        0    1.24419E+00   576.600     0.000   117.337    88.042   115.796    18.100   136.849     6.005   456.534    14.408    24.894     3.041     0.005     0.008     2.428   313.401     0.437     0.001 .00000E+00 0.000E+00 0.000E+00 0.000E+00 0.000E+00 0.000E+00
BIGSUB   2        0    1.13482E+00   576.600     0.000   117.342    87.574   110.604    14.492   146.209     4.201   458.810    13.769    24.190     2.954     0.006     0.010     2.370   308.191     0.428     0.001 .00000E+00 0.000E+00 0.000E+00 0.000E+00 0.000E+00 0.000E+00
BIGSUB   3        0    1.12733E+00   576.600     0.000   117.360    88.081   115.379    19.062   135.478     6.336   455.949    10.962    23.272     2.842     0.004     0.008     2.270   313.838     0.430     0.001 .00000E+00 0.000E+00 0.000E+00 0.000E+00 0.000E+00 0.000E+00
BIGSUB   4        0    1.18951E+00   576.600     0.000   117.405    85.306   101.770     7.767   184.408     1.514   465.413    11.216    15.824     1.940     0.020     0.025     1.565   279.400     0.399     0.000 .00000E+00 0.000E+00 0.000E+00 0.000E+00 0.000E+00 0.000E+00
BIGSUB   5        0    1.25558E+00   576.600     0.000   117.360    87.526   102.318    14.611   159.789     1.547   456.912     9.438    22.054     2.695     0.007     0.012     2.156   295.373     0.434     0.000 .00000E+00 0.000E+00 0.000E+00 0.000E+00 0.000E+00 0.000E+00
BIGSUB   6        0    1.15319E+00   576.600     0.000   117.334    88.383   122.691    30.130   126.275    12.208   451.049     9.589    21.256     2.596     0.004     0.009     2.065   312.041     0.424     0.003 .00000E+00 0.000E+00 0.000E+00 0.000E+00 0.000E+00 0.000E+00
BIGSUB   7        0    1.13143E+00   576.600     0.000   117.332    87.430   118.184    22.190   152.730     8.479   456.107    11.809    21.303     2.616     0.014     0.015     2.053   294.524     0.461     0.005 .00000E+00 0.000E+00 0.000E+00 0.000E+00 0.000E+00 0.000E+00
BIGSUB   8        0    1.90085E-01   576.600     0.000   117.299    89.410   154.581    48.233   106.047    21.384   441.246     4.477    15.008     1.835     0.007     0.009     1.416   312.955     0.452     0.006 .00000E+00 0.000E+00 0.000E+00 0.000E+00 0.000E+00 0.000E+00
BIGSUB   9        0    1.37142E-01   576.600     0.000   117.290    90.216   130.878    53.868   140.002    24.736   439.278     4.724    15.067     1.840     0.006     0.016     1.435   273.521     0.386     0.007 .00000E+00 0.000E+00 0.000E+00 0.000E+00 0.000E+00 0.000E+00
BIGSUB   1        0    2.24419E+00   144.700     0.000   106.762    68.745    67.050     5.586    36.309     7.402   137.348     7.317     6.454     0.788     0.251     0.001     0.630    93.306     0.168     0.002 .00000E+00 0.000E+00 0.000E+00 0.000E+00 0.000E+00 0.000E+00
BIGSUB   2        0    2.13482E+00   144.700     0.000   106.774    68.184    62.373     4.619    38.507     5.181   135.877     6.994     6.258     0.764     0.000     0.002     0.613    91.934     0.121     0.001 .00000E+00 0.000E+00 0.000E+00 0.000E+00 0.000E+00 0.000E+00
BIGSUB   3        0    2.12733E+00   144.700     0.000   106.814    69.014    66.369     5.860    35.985     7.734   137.427     5.584     6.422     0.784     0.000     0.001     0.626    93.357     0.120     0.002 .00000E+00 0.000E+00 0.000E+00 0.000E+00 0.000E+00 0.000E+00
BIGSUB   4        0    2.18951E+00   144.700     0.000   106.918    62.932    58.504     2.799    47.388     1.888   133.474     5.689     3.857     0.474     0.011     0.005     0.384    84.078     0.111     0.000 .00000E+00 0.000E+00 0.000E+00 0.000E+00 0.000E+00 0.000E+00
BIGSUB   5        0    2.25558E+00   144.700     0.000   106.816    67.637    54.627     4.801    41.474     1.942   131.981     4.733     6.065     0.741     0.000     0.002     0.594    88.314     0.120     0.000 .00000E+00 0.000E+00 0.000E+00 0.000E+00 0.000E+00 0.000E+00
BIGSUB   6        0    2.15319E+00   144.700     0.000   106.756    69.040    73.642     8.736    33.778    14.447   141.490     4.899     6.026     0.736     0.012     0.002     0.584    92.672     0.116     0.004 .00000E+00 0.000E+00 0.000E+00 0.000E+00 0.000E+00 0.000E+00
BIGSUB   7        0    2.13143E+00   144.700     0.000   106.751    65.781    72.287     6.755    39.865    10.184   138.789     5.956     5.607     0.689     1.932     0.002     0.543    88.309     0.474     0.006 .00000E+00 0.000E+00 0.000E+00 0.000E+00 0.000E+00 0.000E+00
BIGSUB   8        0    2.90085E-01   144.700     0.000   106.674    68.057   106.516    13.877    28.789    26.134   148.732     2.269     4.960     0.606     0.571     0.002     0.468    92.841     0.228     0.008 .00000E+00 0.000E+00 0.000E+00 0.000E+00 0.000E+00 0.000E+00
BIGSUB   9        0    2.37142E-01   144.700     0.000   106.654    68.329    82.576    14.982    37.870    28.769   148.888     2.426     4.728     0.577     0.000     0.004     0.448    81.130     0.100     0.010 .00000E+00 0.000E+00 0.000E+00 0.000E+00 0.000E+00 0.000E+00
BIGSUB   1        0    3.24419E+00    93.800     0.000   115.332    84.665    37.911     0.000     0.050     4.917    43.553     0.002     0.002     0.000     0.002     0.000     0.000    38.208     0.049     0.001 .00000E+00 0.000E+00 0.000E+00 0.000E+00 0.000E+00 0.000E+00
BIGSUB   2        0    3.13482E+00    93.800     0.000   115.346    84.218    33.019     0.000     0.028     3.239    42.452     0.000     0.000     0.000     0.000     0.000     0.000    38.891     0.003     0.000 .00000E+00 0.000E+00 0.000E+00 0.000E+00 0.000E+00 0.000E+00
BIGSUB   3        0    3.12733E+00    93.800     0.000   115.395    84.666    37.336     0.000     0.000     5.388    43.937     0.000     0.000     0.000     0.000     0.000     0.000    38.151     0.000     0.001 .00000E+00 0.000E+00 0.000E+00 0.000E+00 0.000E+00 0.000E+00
BIGSUB   4        0    3.18951E+00    93.800     0.000   115.523    83.084    29.375     0.000     0.123     1.148    41.122     0.008     0.001     0.000     0.000     0.000     0.000    39.705     0.001     0.000 .00000E+00 0.000E+00 0.000E+00 0.000E+00 0.000E+00 0.000E+00
BIGSUB   5        0    3.25558E+00    93.800     0.000   115.398    84.095    26.214     0.000     0.053     1.035    39.429     0.010     0.001     0.000     0.000     0.000     0.000    38.048     0.003     0.000 .00000E+00 0.000E+00 0.000E+00 0.000E+00 0.000E+00 0.000E+00
BIGSUB   6        0    3.15319E+00    93.800     0.000   115.325    85.294    45.747     0.000     0.007    10.244    47.290     0.000     0.000     0.000     0.000     0.000     0.000    36.378     0.001     0.002 .00000E+00 0.000E+00 0.000E+00 0.000E+00 0.000E+00 0.000E+00
BIGSUB   7        0    3.13143E+00    93.800     0.000   115.319    84.706    43.973     0.000     0.411     6.720    44.585     0.014     0.012     0.002     0.005     0.000     0.001    36.973     0.256     0.002 .00000E+00 0.000E+00 0.000E+00 0.000E+00 0.000E+00 0.000E+00
BIGSUB   8        0    3.90085E-01    93.800     0.000   115.225    85.481    81.325     0.000     2.035    18.961    53.522     0.088     0.069     0.008     0.007     0.000     0.007    31.454     0.127     0.004 .00000E+00 0.000E+00 0.000E+00 0.000E+00 0.000E+00 0.000E+00
BIGSUB   9        0    3.37142E-01    93.800     0.000   115.201    85.213    59.634     0.018     2.229    22.162    54.882     0.000     0.000     0.000     0.000     0.000     0.000    29.265     0.046     0.004 .00000E+00 0.000E+00 0.000E+00 0.000E+00 0.000E+00 0.000E+00
BIGSUB   1        0    4.24419E+00   238.900     0.000   112.373    64.725    63.566     0.048    24.946     0.658   134.072     0.063     0.060     0.008     0.001     0.001     0.005   108.158     0.027     0.000 .00000E+00 0.000E+00 0.000E+00 0.000E+00 0.000E+00 0.000E+00
BIGSUB   2        0    4.13482E+00   238.900     0.000   112.376    63.011    58.273     0.051    26.554     0.523   136.100     0.019     0.027     0.003     0.001     0.001     0.003   108.781     0.025     0.000 .00000E+00 0.000E+00 0.000E+00 0.000E+00 0.000E+00 0.000E+00
BIGSUB   3        0    4.12733E+00   238.900     0.000   112.386    64.328    63.769     0.000    24.381     0.704   133.747     0.014     0.022     0.003     0.001     0.001     0.002   108.336     0.026     0.000 .00000E+00 0.000E+00 0.000E+00 0.000E+00 0.000E+00 0.000E+00
BIGSUB   4        0    4.18951E+00   238.900     0.000   112.411    65.069    48.956     0.000    36.890     0.146   140.638     0.089     0.084     0.011     0.001     0.002     0.009   103.481     0.015     0.000 .00000E+00 0.000E+00 0.000E+00 0.000E+00 0.000E+00 0.000E+00
BIGSUB   5        0    4.25558E+00   238.900     0.000   112.386    61.497    53.222     0.134    30.189     0.191   135.848     0.090     0.036     0.004     0.001     0.001     0.004   105.227     0.026     0.000 .00000E+00 0.000E+00 0.000E+00 0.000E+00 0.000E+00 0.000E+00
BIGSUB   6        0    4.15319E+00   238.900     0.000   112.372    67.806    73.507     0.214    23.987     1.718   130.258     0.013     0.024     0.003     0.001     0.001     0.002   104.017     0.026     0.000 .00000E+00 0.000E+00 0.000E+00 0.000E+00 0.000E+00 0.000E+00
BIGSUB   7        0    4.13143E+00   238.900     0.000   112.371    68.643    66.152     0.000    32.183     1.068   135.192     0.283     0.343     0.044     0.001     0.001     0.029   101.548     0.023     0.000 .00000E+00 0.000E+00 0.000E+00 0.000E+00 0.000E+00 0.000E+00
BIGSUB   8        0    4.90085E-01   238.900     0.000   112.352    80.648   104.598     0.528    27.947     3.332   124.474     0.555     0.397     0.049     0.002     0.001     0.037    92.326     0.025     0.000 .00000E+00 0.000E+00 0.000E+00 0.000E+00 0.000E+00 0.000E+00
BIGSUB   9        0    4.37142E-01   238.900     0.000   112.347    74.224    93.525     0.128    33.547     3.691   122.313     0.007     0.020     0.002     0.001     0.003     0.002    84.084     0.024     0.000 .00000E+00 0.000E+00 0.000E+00 0.000E+00 0.000E+00 0.000E+00
BIGSUB   1        0    5.24419E+00   134.700     0.000   133.630    74.437    60.661     0.034     1.094     0.060    78.095     0.003     0.003     0.000     0.000     0.000     0.000    76.689     0.053     0.000 .00000E+00 0.000E+00 0.000E+00 0.000E+00 0.000E+00 0.000E+00
BIGSUB   2        0    5.13482E+00   134.700     0.000   133.624    75.141    54.084     0.044     1.213     0.064    78.486     0.001     0.001     0.000     0.000     0.000     0.000    77.012     0.052     0.000 .00000E+00 0.000E+00 0.000E+00 0.000E+00 0.000E+00 0.000E+00
BIGSUB   3        0    5.12733E+00   134.700     0.000   133.606    74.290    61.087     0.000     1.039     0.029    78.090     0.001     0.001     0.000     0.000     0.000     0.000    76.758     0.053     0.000 .00000E+00 0.000E+00 0.000E+00 0.000E+00 0.000E+00 0.000E+00
BIGSUB   4        0    5.18951E+00   134.700     0.000   133.559    83.296    38.125     0.002     1.766     0.004    75.477     0.010     0.003     0.000     0.000     0.000     0.000    73.608     0.030     0.000 .00000E+00 0.000E+00 0.000E+00 0.000E+00 0.000E+00 0.000E+00
BIGSUB   5        0    5.25558E+00   134.700     0.000   133.606    75.768    49.470     0.095     1.758     0.105    77.012     0.013     0.002     0.000     0.000     0.000     0.000    74.950     0.051     0.000 .00000E+00 0.000E+00 0.000E+00 0.000E+00 0.000E+00 0.000E+00
BIGSUB   6        0    5.15319E+00   134.700     0.000   133.632    75.451    71.969     0.160     0.996     0.266    75.756     0.001     0.001     0.000     0.000     0.000     0.000    74.057     0.051     0.000 .00000E+00 0.000E+00 0.000E+00 0.000E+00 0.000E+00 0.000E+00
BIGSUB   7        0    5.13143E+00   134.700     0.000   133.635    78.241    61.734     0.000     2.023     0.162    74.980     0.024     0.028     0.004     0.000     0.000     0.002    72.476     0.046     0.000 .00000E+00 0.000E+00 0.000E+00 0.000E+00 0.000E+00 0.000E+00
BIGSUB   8        0    5.90085E-01   134.700     0.000   133.669    78.847   104.044     0.434     3.225     0.638    70.889     0.093     0.062     0.008     0.001     0.000     0.006    66.319     0.048     0.000 .00000E+00 0.000E+00 0.000E+00 0.000E+00 0.000E+00 0.000E+00
BIGSUB   9        0    5.37142E-01   134.700     0.000   133.677    80.627    91.693     0.417     6.629     0.566    68.997     0.000     0.001     0.000     0.000     0.001     0.000    61.000     0.044     0.000 .00000E+00 0.000E+00 0.000E+00 0.000E+00 0.000E+00 0.000E+00
BIGSUB   1        0    6.24419E+00   299.100     0.000    88.593    60.660    78.688     0.077    89.717     0.048   220.650     0.279     0.312     0.039     0.004     0.004     0.027   130.700     0.196     0.000 .00000E+00 0.000E+00 0.000E+00 0.000E+00 0.000E+00 0.000E+00
BIGSUB   2        0    6.13482E+00   299.100     0.000    88.577    60.594    70.760     0.294    90.790     0.098   221.855     0.180     0.245     0.030     0.004     0.004     0.023   130.820     0.194     0.000 .00000E+00 0.000E+00 0.000E+00 0.000E+00 0.000E+00 0.000E+00
BIGSUB   3        0    6.12733E+00   299.100     0.000    88.523    60.854    79.322     0.000    89.515     0.000   220.288     0.143     0.236     0.029     0.004     0.005     0.022   130.578     0.194     0.000 .00000E+00 0.000E+00 0.000E+00 0.000E+00 0.000E+00 0.000E+00
BIGSUB   4        0    6.18951E+00   299.100     0.000    88.382    61.110    56.260     0.036    95.497     0.008   219.967     0.263     0.297     0.038     0.003     0.006     0.030   124.389     0.134     0.000 .00000E+00 0.000E+00 0.000E+00 0.000E+00 0.000E+00 0.000E+00
BIGSUB   5        0    6.25558E+00   299.100     0.000    88.520    60.802    66.861     0.216    97.839     0.135   221.071     0.244     0.263     0.032     0.004     0.005     0.025   122.950     0.178     0.000 .00000E+00 0.000E+00 0.000E+00 0.000E+00 0.000E+00 0.000E+00
BIGSUB   6        0    6.15319E+00   299.100     0.000    88.600    61.587    93.654     0.454    89.649     0.249   216.035     0.129     0.233     0.029     0.003     0.006     0.022   125.814     0.182     0.000 .00000E+00 0.000E+00 0.000E+00 0.000E+00 0.000E+00 0.000E+00
BIGSUB   7        0    6.13143E+00   299.100     0.000    88.608    59.415    79.382     2.586    94.420     0.453   220.223     0.728     0.845     0.108     0.005     0.005     0.069   125.112     0.182     0.000 .00000E+00 0.000E+00 0.000E+00 0.000E+00 0.000E+00 0.000E+00
BIGSUB   8        0    6.90085E-01   299.100     0.000    88.711    62.596   131.120     1.928    89.257     0.774   208.885     0.873     0.641     0.079     0.005     0.007     0.058   118.325     0.174     0.000 .00000E+00 0.000E+00 0.000E+00 0.000E+00 0.000E+00 0.000E+00
BIGSUB   9        0    6.37142E-01   299.100     0.000    88.737    64.498   111.769     6.376   103.710     0.949   209.798     0.067     0.187     0.023     0.003     0.011     0.017   104.537     0.160     0.000 .00000E+00 0.000E+00 0.000E+00 0.000E+00 0.000E+00 0.000E+00
BIGSUB   1        0    7.24419E+00   248.800     0.000   103.122    73.737    91.831     1.135    10.215     0.063   161.224     0.051     0.074     0.011     0.003     0.001     0.006   150.801     0.217     0.000 .00000E+00 0.000E+00 0.000E+00 0.000E+00 0.000E+00 0.000E+00
BIGSUB   2        0    7.13482E+00   248.800     0.000   103.095    73.290    83.885     0.355    10.855     0.185   162.569     0.033     0.049     0.006     0.001     0.001     0.005   151.414     0.206     0.000 .00000E+00 0.000E+00 0.000E+00 0.000E+00 0.000E+00 0.000E+00
BIGSUB   3        0    7.12733E+00   248.800     0.000   103.007    73.874    91.514     1.876     9.921     0.000   161.240     0.026     0.046     0.006     0.001     0.000     0.004   151.167     0.203     0.000 .00000E+00 0.000E+00 0.000E+00 0.000E+00 0.000E+00 0.000E+00
BIGSUB   4        0    7.18951E+00   248.800     0.000   102.775    71.685    67.728     0.053    15.861     0.022   165.921     0.065     0.086     0.011     0.002     0.001     0.009   149.981     0.204     0.000 .00000E+00 0.000E+00 0.000E+00 0.000E+00 0.000E+00 0.000E+00
BIGSUB   5        0    7.25558E+00   248.800     0.000   103.002    73.724    81.063     0.333    16.370     0.176   161.064     0.070     0.077     0.010     0.001     0.001     0.007   144.401     0.193     0.000 .00000E+00 0.000E+00 0.000E+00 0.000E+00 0.000E+00 0.000E+00
BIGSUB   6        0    7.15319E+00   248.800     0.000   103.134    74.665   101.485     8.113     9.658     0.726   159.392     0.023     0.044     0.005     0.001     0.001     0.004   148.743     0.204     0.000 .00000E+00 0.000E+00 0.000E+00 0.000E+00 0.000E+00 0.000E+00
BIGSUB   7        0    7.13143E+00   248.800     0.000   103.146    72.317    91.808     4.738    14.394     1.683   161.433     0.135     0.237     0.040     0.022     0.003     0.015   145.146     0.290     0.000 .00000E+00 0.000E+00 0.000E+00 0.000E+00 0.000E+00 0.000E+00
BIGSUB   8        0    7.90085E-01   248.800     0.000   103.315    76.815   143.970     9.438    14.399     1.278   151.589     0.273     0.184     0.028     0.007     0.001     0.015   135.477     0.226     0.000 .00000E+00 0.000E+00 0.000E+00 0.000E+00 0.000E+00 0.000E+00
BIGSUB   9        0    7.37142E-01   248.800     0.000   103.359    78.105   114.631    19.255    21.752     4.998   154.272     0.012     0.034     0.004     0.002     0.003     0.003   126.983     0.190     0.000 .00000E+00 0.000E+00 0.000E+00 0.000E+00 0.000E+00 0.000E+00
BIGSUB   1        0    8.24419E+00   467.800     0.000   112.721    71.655   104.653     9.787   138.756     1.107   374.565     1.293     1.864     0.240     0.011     0.007     0.173   234.566     0.248     0.000 .00000E+00 0.000E+00 0.000E+00 0.000E+00 0.000E+00 0.000E+00
BIGSUB   2        0    8.13482E+00   467.800     0.000   112.697    71.355    98.605     6.530   143.712     0.548   375.626     1.148     1.762     0.217     0.006     0.006     0.168   231.265     0.228     0.000 .00000E+00 0.000E+00 0.000E+00 0.000E+00 0.000E+00 0.000E+00
BIGSUB   3        0    8.12733E+00   467.800     0.000   112.616    71.722   104.355    10.296   137.719     1.453   374.328     0.905     1.688     0.207     0.005     0.006     0.159   235.009     0.232     0.000 .00000E+00 0.000E+00 0.000E+00 0.000E+00 0.000E+00 0.000E+00
BIGSUB   4        0    8.18951E+00   467.800     0.000   112.404    69.474    83.976     2.412   163.187     0.140   379.626     1.260     2.087     0.263     0.010     0.011     0.216   216.251     0.217     0.000 .00000E+00 0.000E+00 0.000E+00 0.000E+00 0.000E+00 0.000E+00
BIGSUB   5        0    8.25558E+00   467.800     0.000   112.611    71.836    92.987     5.366   166.991     0.281   378.840     1.089     2.034     0.251     0.007     0.007     0.194   211.472     0.227     0.000 .00000E+00 0.000E+00 0.000E+00 0.000E+00 0.000E+00 0.000E+00
BIGSUB   6        0    8.15319E+00   467.800     0.000   112.731    72.245   112.006    18.885   132.548     5.886   372.129     0.798     1.584     0.195     0.005     0.007     0.149   233.404     0.236     0.001 .00000E+00 0.000E+00 0.000E+00 0.000E+00 0.000E+00 0.000E+00
BIGSUB   7        0    8.13143E+00   467.800     0.000   112.743    70.724   105.887    11.605   150.118     3.510   374.930     1.653     2.622     0.380     0.049     0.023     0.228   221.085     0.322     0.001 .00000E+00 0.000E+00 0.000E+00 0.000E+00 0.000E+00 0.000E+00
BIGSUB   8        0    8.90085E-01   467.800     0.000   112.897    74.532   144.918    33.902   125.147     7.267   365.987     1.303     1.679     0.231     0.018     0.013     0.150   233.111     0.307     0.001 .00000E+00 0.000E+00 0.000E+00 0.000E+00 0.000E+00 0.000E+00
BIGSUB   9        0    8.37142E-01   467.800     0.000   112.937    75.654   119.554    36.748   146.934    14.761   365.719     0.399     1.153     0.141     0.005     0.014     0.106   203.399     0.219     0.002 .00000E+00 0.000E+00 0.000E+00 0.000E+00 0.000E+00 0.000E+00
BIGSUB   1        0    9.24419E+00   166.700     0.000   150.495    81.372    95.605     1.385    15.156     4.037    97.473     0.368     0.381     0.048     0.003     0.001     0.036    78.111     0.054     0.000 .00000E+00 0.000E+00 0.000E+00 0.000E+00 0.000E+00 0.000E+00
BIGSUB   2        0    9.13482E+00   166.700     0.000   150.469    80.844    89.530     0.932    16.288     2.386    96.786     0.334     0.389     0.048     0.002     0.001     0.037    77.993     0.050     0.000 .00000E+00 0.000E+00 0.000E+00 0.000E+00 0.000E+00 0.000E+00
BIGSUB   3        0    9.12733E+00   166.700     0.000   150.383    81.439    95.346     1.456    14.895     4.519    97.791     0.259     0.366     0.045     0.002     0.001     0.035    78.194     0.050     0.000 .00000E+00 0.000E+00 0.000E+00 0.000E+00 0.000E+00 0.000E+00
BIGSUB   4        0    9.18951E+00   166.700     0.000   150.156    78.344    75.843     0.343    20.869     0.848    97.332     0.385     0.526     0.066     0.003     0.001     0.055    75.564     0.050     0.000 .00000E+00 0.000E+00 0.000E+00 0.000E+00 0.000E+00 0.000E+00
BIGSUB   5        0    9.25558E+00   166.700     0.000   150.378    81.214    83.759     0.929    19.205     0.424    94.590     0.308     0.464     0.057     0.002     0.001     0.045    74.851     0.053     0.000 .00000E+00 0.000E+00 0.000E+00 0.000E+00 0.000E+00 0.000E+00
BIGSUB   6        0    9.15319E+00   166.700     0.000   150.506    82.347   103.352     2.993    13.672     9.915   100.557     0.225     0.329     0.040     0.001     0.001     0.031    76.604     0.052     0.001 .00000E+00 0.000E+00 0.000E+00 0.000E+00 0.000E+00 0.000E+00
BIGSUB   7        0    9.13143E+00   166.700     0.000   150.518    80.789    97.055     2.521    17.774     5.553    98.305     0.444     0.510     0.071     0.016     0.003     0.048    74.723     0.082     0.002 .00000E+00 0.000E+00 0.000E+00 0.000E+00 0.000E+00 0.000E+00
BIGSUB   8        0    9.90085E-01   166.700     0.000   150.683    85.798   135.770     4.972    13.002    16.196   102.102     0.371     0.253     0.035     0.006     0.001     0.024    72.307     0.065     0.002 .00000E+00 0.000E+00 0.000E+00 0.000E+00 0.000E+00 0.000E+00
BIGSUB   9        0    9.37142E-01   166.700     0.000   150.725    86.639   111.790     6.333    16.531    20.826   103.298     0.108     0.223     0.027     0.001     0.002     0.021    65.172     0.050     0.003 .00000E+00 0.000E+00 0.000E+00 0.000E+00 0.000E+00 0.000E+00
BIGSUB   1        0   10.24419E+00   234.500     0.000   163.667    75.394   103.998     0.900    45.024     2.350   145.734     1.739     1.630     0.202     0.008     0.002     0.157    98.193     0.112     0.000 .00000E+00 0.000E+00 0.000E+00 0.000E+00 0.000E+00 0.000E+00
BIGSUB   2        0   10.13482E+00   234.500     0.000   163.644    74.715    97.455     0.498    47.540     1.310   146.232     1.659     1.717     0.211     0.006     0.002     0.166    97.264     0.105     0.000 .00000E+00 0.000E+00 0.000E+00 0.000E+00 0.000E+00 0.000E+00
BIGSUB   3        0   10.12733E+00   234.500     0.000   163.567    75.442   103.764     1.042    44.541     2.846   146.010     1.293     1.685     0.207     0.006     0.002     0.160    98.441     0.108     0.000 .00000E+00 0.000E+00 0.000E+00 0.000E+00 0.000E+00 0.000E+00
BIGSUB   4        0   10.18951E+00   234.500     0.000   163.365    72.402    82.758     0.164    57.732     0.443   149.359     1.872     2.636     0.333     0.010     0.003     0.281    91.136     0.100     0.000 .00000E+00 0.000E+00 0.000E+00 0.000E+00 0.000E+00 0.000E+00
BIGSUB   5        0   10.25558E+00   234.500     0.000   163.563    74.952    91.624     0.192    53.941     0.272   145.694     1.377     2.092     0.258     0.007     0.002     0.202    91.374     0.105     0.000 .00000E+00 0.000E+00 0.000E+00 0.000E+00 0.000E+00 0.000E+00
BIGSUB   6        0   10.15319E+00   234.500     0.000   163.677    76.476   112.502     3.097    41.953     6.750   146.365     1.132     1.557     0.191     0.005     0.002     0.148    97.294     0.112     0.000 .00000E+00 0.000E+00 0.000E+00 0.000E+00 0.000E+00 0.000E+00
BIGSUB   7        0   10.13143E+00   234.500     0.000   163.688    75.034   105.451     1.704    50.536     3.531   146.852     1.703     1.901     0.248     0.025     0.007     0.193    92.532     0.143     0.001 .00000E+00 0.000E+00 0.000E+00 0.000E+00 0.000E+00 0.000E+00
BIGSUB   8        0   10.90085E-01   234.500     0.000   163.835    79.741   147.759     4.330    37.777    10.122   142.892     0.865     1.154     0.147     0.012     0.003     0.112    94.388     0.127     0.001 .00000E+00 0.000E+00 0.000E+00 0.000E+00 0.000E+00 0.000E+00
BIGSUB   9        0   10.37142E-01   234.500     0.000   163.872    80.352   121.946     8.066    45.850    14.583   145.562     0.554     1.150     0.141     0.005     0.004     0.107    84.357     0.110     0.001 .00000E+00 0.000E+00 0.000E+00 0.000E+00 0.000E+00 0.000E+00
BIGSUB   1        0   11.24419E+00   180.900     0.000   150.031    76.354   102.964     0.576    22.216     0.220   106.101     1.602     1.269     0.157     0.003     0.001     0.123    83.525     0.098     0.000 .00000E+00 0.000E+00 0.000E+00 0.000E+00 0.000E+00 0.000E+00
BIGSUB   2        0   11.13482E+00   180.900     0.000   150.014    75.426    96.339     0.374    23.681     0.188   107.256     1.554     1.386     0.171     0.003     0.001     0.135    83.290     0.092     0.000 .00000E+00 0.000E+00 0.000E+00 0.000E+00 0.000E+00 0.000E+00
BIGSUB   3        0   11.12733E+00   180.900     0.000   149.957    76.405   102.649     0.729    21.895     0.289   106.057     1.206     1.337     0.164     0.002     0.001     0.127    83.721     0.095     0.000 .00000E+00 0.000E+00 0.000E+00 0.000E+00 0.000E+00 0.000E+00
BIGSUB   4        0   11.18951E+00   180.900     0.000   149.808    73.327    81.569     0.073    30.111     0.030   109.518     1.886     2.532     0.321     0.004     0.002     0.273    79.339     0.087     0.000 .00000E+00 0.000E+00 0.000E+00 0.000E+00 0.000E+00 0.000E+00
BIGSUB   5        0   11.25558E+00   180.900     0.000   149.954    76.133    90.441     0.140    27.967     0.183   106.812     1.297     1.753     0.216     0.003     0.001     0.171    78.575     0.094     0.000 .00000E+00 0.000E+00 0.000E+00 0.000E+00 0.000E+00 0.000E+00
BIGSUB   6        0   11.15319E+00   180.900     0.000   150.038    77.686   111.431     2.331    20.555     1.551   104.509     1.059     1.275     0.156     0.002     0.001     0.121    82.090     0.098     0.000 .00000E+00 0.000E+00 0.000E+00 0.000E+00 0.000E+00 0.000E+00
BIGSUB   7        0   11.13143E+00   180.900     0.000   150.046    76.138   104.727     1.156    25.949     1.858   107.133     1.509     1.528     0.196     0.009     0.003     0.159    79.113     0.121     0.000 .00000E+00 0.000E+00 0.000E+00 0.000E+00 0.000E+00 0.000E+00
BIGSUB   8        0   11.90085E-01   180.900     0.000   150.155    80.929   147.887     3.794    19.322     2.310    99.440     0.661     0.997     0.124     0.005     0.001     0.096    77.295     0.108     0.000 .00000E+00 0.000E+00 0.000E+00 0.000E+00 0.000E+00 0.000E+00
BIGSUB   9        0   11.37142E-01   180.900     0.000   150.183    81.724   121.710     5.591    24.187     5.992   101.046     0.523     1.007     0.123     0.002     0.002     0.093    70.201     0.098     0.000 .00000E+00 0.000E+00 0.000E+00 0.000E+00 0.000E+00 0.000E+00
BIGSUB   1        0   12.24419E+00   309.800     0.000   145.871    96.193   107.014     4.692    41.284     1.340   204.362     5.550     3.629     0.447     0.003     0.001     0.352   161.605     0.236     0.000 .00000E+00 0.000E+00 0.000E+00 0.000E+00 0.000E+00 0.000E+00
BIGSUB   2        0   12.13482E+00   309.800     0.000   145.864    95.520   100.820     3.290    44.053     0.830   205.571     5.439     4.058     0.500     0.002     0.001     0.396   160.597     0.226     0.000 .00000E+00 0.000E+00 0.000E+00 0.000E+00 0.000E+00 0.000E+00
BIGSUB   3        0   12.12733E+00   309.800     0.000   145.842    96.254   106.701     4.971    40.704     1.481   204.160     4.205     3.886     0.476     0.002     0.001     0.370   161.831     0.228     0.000 .00000E+00 0.000E+00 0.000E+00 0.000E+00 0.000E+00 0.000E+00
BIGSUB   4        0   12.18951E+00   309.800     0.000   145.785    93.639    86.698     1.181    55.624     0.256   208.655     6.838     7.763     0.983     0.004     0.003     0.841   152.739     0.226     0.000 .00000E+00 0.000E+00 0.000E+00 0.000E+00 0.000E+00 0.000E+00
BIGSUB   5        0   12.25558E+00   309.800     0.000   145.841    96.355    95.452     2.354    52.575     0.208   204.729     4.452     5.146     0.634     0.003     0.002     0.503   151.870     0.225     0.000 .00000E+00 0.000E+00 0.000E+00 0.000E+00 0.000E+00 0.000E+00
BIGSUB   6        0   12.15319E+00   309.800     0.000   145.873    97.315   114.802     9.691    37.943     3.884   201.510     3.692     3.738     0.458     0.002     0.001     0.355   159.381     0.230     0.001 .00000E+00 0.000E+00 0.000E+00 0.000E+00 0.000E+00 0.000E+00
BIGSUB   7        0   12.13143E+00   309.800     0.000   145.876    96.031   108.453     6.926    47.653     2.343   203.824     5.113     4.430     0.562     0.009     0.004     0.463   153.625     0.279     0.001 .00000E+00 0.000E+00 0.000E+00 0.000E+00 0.000E+00 0.000E+00
BIGSUB   8        0   12.90085E-01   309.800     0.000   145.919   100.215   149.155    16.787    35.071     6.474   196.079     1.899     2.991     0.370     0.006     0.002     0.287   154.038     0.260     0.001 .00000E+00 0.000E+00 0.000E+00 0.000E+00 0.000E+00 0.000E+00
BIGSUB   9        0   12.37142E-01   309.800     0.000   145.929   101.643   124.330    20.030    46.006     8.935   193.070     1.814     3.135     0.383     0.003     0.004     0.289   137.481     0.222     0.001 .00000E+00 0.000E+00 0.000E+00 0.000E+00 0.000E+00 0.000E+00
BIGSUB   1        0 2013.24419E+00  3096.300     0.000  1499.931   915.979   107.014    42.319   561.616    28.206  2159.710    32.675    40.572     4.981     0.294     0.027     3.937  1567.263     1.894     0.004 .00000E+00 0.000E+00 0.000E+00 0.000E+00 0.000E+00 0.000E+00
BIGSUB   2        0 2013.13482E+00  3096.300     0.000  1499.822   909.871   100.820    31.478   589.429    18.754  2167.621    31.129    40.083     4.904     0.032     0.029     3.916  1557.453     1.730     0.003 .00000E+00 0.000E+00 0.000E+00 0.000E+00 0.000E+00 0.000E+00
BIGSUB   3        0 2013.12733E+00  3096.300     0.000  1499.454   916.369   106.701    45.291   556.073    30.779  2159.023    24.598    38.961     4.762     0.026     0.026     3.776  1569.381     1.740     0.005 .00000E+00 0.000E+00 0.000E+00 0.000E+00 0.000E+00 0.000E+00
BIGSUB   4        0 2013.18951E+00  3096.300     0.000  1498.491   899.667    86.698    14.830   709.459     6.447  2186.503    29.582    35.697     4.441     0.067     0.059     3.664  1469.671     1.574     0.001 .00000E+00 0.000E+00 0.000E+00 0.000E+00 0.000E+00 0.000E+00
BIGSUB   5        0 2013.25558E+00  3096.300     0.000  1499.434   911.539    95.452    29.169   668.150     6.500  2153.981    23.120    39.989     4.899     0.035     0.034     3.901  1477.406     1.709     0.001 .00000E+00 0.000E+00 0.000E+00 0.000E+00 0.000E+00 0.000E+00
BIGSUB   6        0 2013.15319E+00  3096.300     0.000  1499.980   928.295   114.802    84.805   531.022    67.843  2146.338    21.559    36.069     4.409     0.038     0.029     3.481  1542.495     1.730     0.012 .00000E+00 0.000E+00 0.000E+00 0.000E+00 0.000E+00 0.000E+00
BIGSUB   7        0 2013.13143E+00  3096.300     0.000  1500.031   915.248   108.453    60.181   628.056    45.544  2162.352    29.371    39.368     4.960     2.086     0.067     3.803  1485.166     2.677     0.019 .00000E+00 0.000E+00 0.000E+00 0.000E+00 0.000E+00 0.000E+00
BIGSUB   8        0 2013.90085E-01  3096.301     0.000  1500.732   963.068   149.155   138.224   502.019   114.871  2105.838    13.727    28.396     3.519     0.646     0.042     2.675  1480.837     2.145     0.023 .00000E+00 0.000E+00 0.000E+00 0.000E+00 0.000E+00 0.000E+00
BIGSUB   9        0 2013.37142E-01  3096.301     0.000  1500.912   967.223   124.330   171.813   625.247   150.967  2107.123    10.634    26.704     3.263     0.029     0.066     2.521  1321.128     1.649     0.030 .00000E+00 0.000E+00 0.000E+00 0.000E+00 0.000E+00 0.000E+00
BIGSUB   1        0    1.24419E+00   549.600     0.000   142.749    96.467   107.497    15.604   147.986     5.209   449.518    11.921    26.397     3.226     0.004     0.009     2.573   296.131     0.401     0.001 .00000E+00 0.000E+00 0.000E+00 0.000E+00 0.000E+00 0.000E+00
BIGSUB   2        0    1.13482E+00   549.600     0.000   142.761    96.057   102.241    11.913   157.051     3.603   450.828    11.758    27.772     3.397     0.004     0.010     2.731   290.038     0.386     0.001 .00000E+00 0.000E+00 0.000E+00 0.000E+00 0.000E+00 0.000E+00
BIGSUB   3        0    1.12733E+00   549.600     0.000   142.801    96.545   107.169    16.392   146.786     5.530   449.040     9.088    24.825     3.031     0.004     0.009     2.417   296.518     0.393     0.001 .00000E+00 0.000E+00 0.000E+00 0.000E+00 0.000E+00 0.000E+00
BIGSUB   4        0    1.18951E+00   549.600     0.000   142.905    95.185    92.417     4.883   190.410     1.296   451.246    15.316    40.741     5.056     0.006     0.014     4.186   259.487     0.333     0.000 .00000E+00 0.000E+00 0.000E+00 0.000E+00 0.000E+00 0.000E+00
BIGSUB   5        0    1.25558E+00   549.600     0.000   142.803    96.294    94.085    12.736   172.441     1.079   449.467     8.752    27.798     3.406     0.004     0.011     2.739   275.825     0.411     0.000 .00000E+00 0.000E+00 0.000E+00 0.000E+00 0.000E+00 0.000E+00
BIGSUB   6        0    1.15319E+00   549.600     0.000   142.744    97.316   114.587    26.736   137.236    10.761   444.138     8.010    23.074     2.818     0.003     0.010     2.240   295.743     0.393     0.003 .00000E+00 0.000E+00 0.000E+00 0.000E+00 0.000E+00 0.000E+00
BIGSUB   7        0    1.13143E+00   549.600     0.000   142.738    96.461   109.745    18.343   162.467     7.006   447.410    10.829    27.531     3.400     0.011     0.015     2.697   277.668     0.424     0.005 .00000E+00 0.000E+00 0.000E+00 0.000E+00 0.000E+00 0.000E+00
BIGSUB   8        0    1.90085E-01   549.600     0.000   142.662    99.242   146.294    44.067   114.635    18.707   436.000     3.655    16.426     2.011     0.007     0.011     1.549   301.998     0.435     0.005 .00000E+00 0.000E+00 0.000E+00 0.000E+00 0.000E+00 0.000E+00
BIGSUB   9        0    1.37142E-01   549.600     0.000   142.642   100.940   121.572    48.145   149.471    21.704   432.382     3.927    16.186     1.976     0.005     0.018     1.538   260.391     0.364     0.007 .00000E+00 0.000E+00 0.000E+00 0.000E+00 0.000E+00 0.000E+00
BIGSUB   1        0    2.24419E+00   351.600     0.000   144.117    99.695   109.294     6.321    60.638     5.342   246.463     0.492     0.743     0.092     0.182     0.001     0.071   180.260     0.312     0.001 .00000E+00 0.000E+00 0.000E+00 0.000E+00 0.000E+00 0.000E+00
BIGSUB   2        0    2.13482E+00   351.600     0.000   144.130    99.172   104.118     4.666    65.817     3.741   247.001     0.428     0.799     0.098     0.004     0.001     0.079   177.280     0.026     0.001 .00000E+00 0.000E+00 0.000E+00 0.000E+00 0.000E+00 0.000E+00
BIGSUB   3        0    2.12733E+00   351.600     0.000   144.172    99.887   108.945     6.694    59.770     5.648   246.232     0.314     0.647     0.079     0.000     0.001     0.063   180.577     0.013     0.001 .00000E+00 0.000E+00 0.000E+00 0.000E+00 0.000E+00 0.000E+00
BIGSUB   4        0    2.18951E+00   351.600     0.000   144.282    96.221    94.796     1.819    88.018     1.355   250.330     0.848     1.839     0.229     0.002     0.001     0.192   160.892     0.011     0.000 .00000E+00 0.000E+00 0.000E+00 0.000E+00 0.000E+00 0.000E+00
BIGSUB   5        0    2.25558E+00   351.600     0.000   144.175    99.016    95.807     4.468    74.131     1.336   245.226     0.383     0.918     0.113     0.002     0.001     0.091   169.605     0.022     0.000 .00000E+00 0.000E+00 0.000E+00 0.000E+00 0.000E+00 0.000E+00
BIGSUB   6        0    2.15319E+00   351.600     0.000   144.112   100.422   116.236    12.196    54.878    10.786   245.602     0.275     0.587     0.072     0.003     0.001     0.057   179.500     0.015     0.002 .00000E+00 0.000E+00 0.000E+00 0.000E+00 0.000E+00 0.000E+00
BIGSUB   7        0    2.13143E+00   351.600     0.000   144.106    98.299   111.716     8.505    70.708     7.228   247.511     0.834     1.540     0.196     0.768     0.001     0.145   169.277     1.921     0.004 .00000E+00 0.000E+00 0.000E+00 0.000E+00 0.000E+00 0.000E+00
BIGSUB   8        0    2.90085E-01   351.600     0.000   144.025   101.321   147.931    20.129    45.956    18.913   244.857     0.575     0.841     0.105     0.436     0.002     0.079   179.262     0.773     0.004 .00000E+00 0.000E+00 0.000E+00 0.000E+00 0.000E+00 0.000E+00
BIGSUB   9        0    2.37142E-01   351.600     0.000   144.004   101.979   123.268    23.931    64.111    21.598   243.688     0.131     0.404     0.049     0.039     0.005     0.039   157.109     0.213     0.005 .00000E+00 0.000E+00 0.000E+00 0.000E+00 0.000E+00 0.000E+00
BIGSUB   1        0    3.24419E+00   222.800     0.000   167.179   130.367    73.572     1.408    32.541     5.349   136.330     0.075     0.079     0.010     0.000     0.000     0.007    98.170     0.009     0.000 .00000E+00 0.000E+00 0.000E+00 0.000E+00 0.000E+00 0.000E+00
BIGSUB   2        0    3.13482E+00   222.800     0.000   167.186   129.730    68.004     0.934    34.990     3.463   135.797     0.022     0.041     0.005     0.000     0.001     0.004    97.148     0.005     0.001 .00000E+00 0.000E+00 0.000E+00 0.000E+00 0.000E+00 0.000E+00
BIGSUB   3        0    3.12733E+00   222.800     0.000   167.209   130.373    73.385     1.529    32.121     5.902   136.612     0.016     0.032     0.004     0.000     0.001     0.003    98.304     0.004     0.000 .00000E+00 0.000E+00 0.000E+00 0.000E+00 0.000E+00 0.000E+00
BIGSUB   4        0    3.18951E+00   222.800     0.000   167.269   128.354    56.890     0.322    45.569     1.232   136.733     0.086     0.112     0.014     0.000     0.000     0.011    89.854     0.003     0.000 .00000E+00 0.000E+00 0.000E+00 0.000E+00 0.000E+00 0.000E+00
BIGSUB   5        0    3.25558E+00   222.800     0.000   167.210   129.724    61.557     0.337    38.819     1.167   132.058     0.065     0.046     0.006     0.000     0.000     0.004    91.884     0.005     0.000 .00000E+00 0.000E+00 0.000E+00 0.000E+00 0.000E+00 0.000E+00
BIGSUB   6        0    3.15319E+00   222.800     0.000   167.176   131.397    81.448     3.410    29.856    11.489   138.763     0.014     0.032     0.004     0.000     0.001     0.003    96.894     0.005     0.001 .00000E+00 0.000E+00 0.000E+00 0.000E+00 0.000E+00 0.000E+00
BIGSUB   7        0    3.13143E+00   222.800     0.000   167.173   130.888    75.271     2.037    37.494     7.076   137.675     0.328     0.412     0.054     0.001     0.000     0.036    92.748     0.085     0.010 .00000E+00 0.000E+00 0.000E+00 0.000E+00 0.000E+00 0.000E+00
BIGSUB   8        0    3.90085E-01   222.800     0.000   167.129   132.695   115.166     5.609    26.543    19.819   142.139     0.448     0.358     0.045     0.003     0.001     0.034    94.909     0.029     0.005 .00000E+00 0.000E+00 0.000E+00 0.000E+00 0.000E+00 0.000E+00
BIGSUB   9        0    3.37142E-01   222.800     0.000   167.118   133.497    91.753     7.415    33.679    23.245   141.269     0.007     0.024     0.003     0.005     0.003     0.002    83.312     0.032     0.002 .00000E+00 0.000E+00 0.000E+00 0.000E+00 0.000E+00 0.000E+00
BIGSUB   1        0    4.24419E+00   466.600     0.000   131.848   116.812   110.624     5.641    55.446     1.755   298.234     0.084     0.088     0.011     0.050     0.001     0.007   240.787     0.113     0.000 .00000E+00 0.000E+00 0.000E+00 0.000E+00 0.000E+00 0.000E+00
BIGSUB   2        0    4.13482E+00   466.600     0.000   131.845   116.502   104.848     3.812    59.886     1.253   300.192     0.025     0.044     0.005     0.001     0.002     0.004   238.873     0.047     0.000 .00000E+00 0.000E+00 0.000E+00 0.000E+00 0.000E+00 0.000E+00
BIGSUB   3        0    4.12733E+00   466.600     0.000   131.835   116.721   110.433     6.071    54.644     1.902   298.051     0.018     0.036     0.004     0.001     0.001     0.003   241.243     0.049     0.000 .00000E+00 0.000E+00 0.000E+00 0.000E+00 0.000E+00 0.000E+00
BIGSUB   4        0    4.18951E+00   466.600     0.000   131.808   116.464    91.211     1.339    79.834     0.394   305.172     0.119     0.108     0.013     0.001     0.002     0.011   224.874     0.028     0.000 .00000E+00 0.000E+00 0.000E+00 0.000E+00 0.000E+00 0.000E+00
BIGSUB   5        0    4.25558E+00   466.600     0.000   131.834   116.572    99.224     3.060    73.093     0.442   299.538     0.112     0.052     0.006     0.002     0.002     0.005   225.833     0.048     0.000 .00000E+00 0.000E+00 0.000E+00 0.000E+00 0.000E+00 0.000E+00
BIGSUB   6        0    4.15319E+00   466.600     0.000   131.850   117.255   118.132    12.827    51.101     5.754   295.229     0.017     0.037     0.005     0.001     0.002     0.003   237.891     0.049     0.000 .00000E+00 0.000E+00 0.000E+00 0.000E+00 0.000E+00 0.000E+00
BIGSUB   7        0    4.13143E+00   466.600     0.000   131.851   117.638   111.767     7.975    66.684     3.660   297.914     0.403     0.496     0.065     0.277     0.001     0.042   227.242     0.328     0.004 .00000E+00 0.000E+00 0.000E+00 0.000E+00 0.000E+00 0.000E+00
BIGSUB   8        0    4.90085E-01   466.600     0.000   131.871   118.083   151.258    22.247    50.626     7.856   287.636     0.743     0.482     0.060     0.116     0.002     0.046   228.355     0.199     0.002 .00000E+00 0.000E+00 0.000E+00 0.000E+00 0.000E+00 0.000E+00
BIGSUB   9        0    4.37142E-01   466.600     0.000   131.876   118.688   127.148    27.698    69.705    15.674   291.778     0.008     0.025     0.003     0.001     0.007     0.002   205.441     0.045     0.001 .00000E+00 0.000E+00 0.000E+00 0.000E+00 0.000E+00 0.000E+00
BIGSUB   1        0    5.24419E+00   221.200     0.000   141.522    77.941   109.368     2.667    34.376     3.390   155.368     0.051     0.057     0.007     0.004     0.001     0.005   117.359     0.131     0.000 .00000E+00 0.000E+00 0.000E+00 0.000E+00 0.000E+00 0.000E+00
BIGSUB   2        0    5.13482E+00   221.200     0.000   141.503    79.385   102.637     1.726    35.670     2.301   154.477     0.027     0.041     0.005     0.004     0.002     0.004   116.330     0.127     0.000 .00000E+00 0.000E+00 0.000E+00 0.000E+00 0.000E+00 0.000E+00
BIGSUB   3        0    5.12733E+00   221.200     0.000   141.438    77.736   109.257     2.848    34.236     3.643   155.596     0.021     0.038     0.005     0.004     0.002     0.003   117.457     0.133     0.000 .00000E+00 0.000E+00 0.000E+00 0.000E+00 0.000E+00 0.000E+00
BIGSUB   4        0    5.18951E+00   221.200     0.000   141.270    92.964    80.325     0.656    36.535     0.803   148.137     0.060     0.049     0.006     0.002     0.001     0.005   110.731     0.071     0.000 .00000E+00 0.000E+00 0.000E+00 0.000E+00 0.000E+00 0.000E+00
BIGSUB   5        0    5.25558E+00   221.200     0.000   141.435    81.017    95.340     1.855    39.887     0.781   152.568     0.057     0.042     0.005     0.004     0.002     0.004   111.740     0.126     0.000 .00000E+00 0.000E+00 0.000E+00 0.000E+00 0.000E+00 0.000E+00
BIGSUB   6        0    5.15319E+00   221.200     0.000   141.531    78.862   116.667     5.703    32.077     7.829   156.327     0.018     0.035     0.004     0.004     0.002     0.003   115.930     0.129     0.000 .00000E+00 0.000E+00 0.000E+00 0.000E+00 0.000E+00 0.000E+00
BIGSUB   7        0    5.13143E+00   221.200     0.000   141.539    83.050   108.282     3.474    35.832     4.902   152.941     0.178     0.192     0.025     0.004     0.001     0.016   111.881     0.193     0.002 .00000E+00 0.000E+00 0.000E+00 0.000E+00 0.000E+00 0.000E+00
BIGSUB   8        0    5.90085E-01   221.200     0.000   141.662    81.943   149.105     9.512    28.908    13.346   156.382     0.306     0.162     0.020     0.003     0.002     0.015   113.312     0.128     0.001 .00000E+00 0.000E+00 0.000E+00 0.000E+00 0.000E+00 0.000E+00
BIGSUB   9        0    5.37142E-01   221.200     0.000   141.694    82.961   123.745    12.146    37.858    17.327   156.692     0.009     0.024     0.003     0.004     0.004     0.002   100.520     0.115     0.001 .00000E+00 0.000E+00 0.000E+00 0.000E+00 0.000E+00 0.000E+00
BIGSUB   1        0    6.24419E+00   204.500     0.000   138.347    82.613   101.432     2.649    26.621     3.468   131.859     0.042     0.050     0.006     0.003     0.001     0.004   101.540     0.111     0.000 .00000E+00 0.000E+00 0.000E+00 0.000E+00 0.000E+00 0.000E+00
BIGSUB   2        0    6.13482E+00   204.500     0.000   138.324    82.791    95.075     1.864    27.759     2.181   130.748     0.022     0.037     0.005     0.003     0.001     0.003   100.644     0.108     0.000 .00000E+00 0.000E+00 0.000E+00 0.000E+00 0.000E+00 0.000E+00
BIGSUB   3        0    6.12733E+00   204.500     0.000   138.247    82.920   101.190     2.795    26.392     3.844   131.925     0.017     0.034     0.004     0.003     0.001     0.003   101.445     0.112     0.000 .00000E+00 0.000E+00 0.000E+00 0.000E+00 0.000E+00 0.000E+00
BIGSUB   4        0    6.18951E+00   204.500     0.000   138.045    84.782    75.554     0.674    29.236     0.786   125.645     0.044     0.040     0.005     0.002     0.001     0.004    95.560     0.072     0.000 .00000E+00 0.000E+00 0.000E+00 0.000E+00 0.000E+00 0.000E+00
BIGSUB   5        0    6.25558E+00   204.500     0.000   138.243    83.477    86.624     2.215    30.667     0.820   129.467     0.042     0.037     0.005     0.003     0.001     0.003    97.828     0.110     0.000 .00000E+00 0.000E+00 0.000E+00 0.000E+00 0.000E+00 0.000E+00
BIGSUB   6        0    6.15319E+00   204.500     0.000   138.357    83.805   108.436     5.508    24.512     8.192   133.026     0.015     0.032     0.004     0.003     0.001     0.003    99.853     0.110     0.000 .00000E+00 0.000E+00 0.000E+00 0.000E+00 0.000E+00 0.000E+00
BIGSUB   7        0    6.13143E+00   204.500     0.000   138.368    80.863   101.552     5.117    28.557     5.009   131.592     0.137     0.154     0.020     0.004     0.001     0.013    97.714     0.142     0.001 .00000E+00 0.000E+00 0.000E+00 0.000E+00 0.000E+00 0.000E+00
BIGSUB   8        0    6.90085E-01   204.500     0.000   138.515    84.980   140.105     9.893    22.271    13.703   133.998     0.227     0.118     0.015     0.003     0.001     0.011    97.238     0.112     0.001 .00000E+00 0.000E+00 0.000E+00 0.000E+00 0.000E+00 0.000E+00
BIGSUB   9        0    6.37142E-01   204.500     0.000   138.553    87.153   115.544    11.527    28.366    16.378   132.150     0.008     0.021     0.003     0.003     0.003     0.002    86.456     0.102     0.001 .00000E+00 0.000E+00 0.000E+00 0.000E+00 0.000E+00 0.000E+00
BIGSUB   1        0    7.24419E+00   729.100     0.000   111.635    65.053   115.290    11.700   419.687     2.625   620.439     1.684     2.478     0.340     0.018     0.025     0.217   197.900     0.303     0.000 .00000E+00 0.000E+00 0.000E+00 0.000E+00 0.000E+00 0.000E+00
BIGSUB   2        0    7.13482E+00   729.100     0.000   111.630    64.619   109.541     8.876   427.778     1.813   622.977     1.357     2.137     0.264     0.013     0.022     0.200   193.224     0.288     0.000 .00000E+00 0.000E+00 0.000E+00 0.000E+00 0.000E+00 0.000E+00
BIGSUB   3        0    7.12733E+00   729.100     0.000   111.612    65.210   115.018    12.338   418.838     2.816   619.896     1.078     2.065     0.254     0.012     0.023     0.192   197.999     0.291     0.000 .00000E+00 0.000E+00 0.000E+00 0.000E+00 0.000E+00 0.000E+00
BIGSUB   4        0    7.18951E+00   729.100     0.000   111.563    62.211    94.949     3.638   447.574     0.636   627.032     1.547     1.920     0.240     0.017     0.022     0.183   178.761     0.276     0.000 .00000E+00 0.000E+00 0.000E+00 0.000E+00 0.000E+00 0.000E+00
BIGSUB   5        0    7.25558E+00   729.100     0.000   111.611    64.782   100.829     8.137   440.687     0.672   624.130     1.219     1.983     0.244     0.013     0.021     0.185   182.618     0.288     0.000 .00000E+00 0.000E+00 0.000E+00 0.000E+00 0.000E+00 0.000E+00
BIGSUB   6        0    7.15319E+00   729.100     0.000   111.638    65.876   122.228    20.411   408.294     5.993   614.144     0.960     1.970     0.243     0.011     0.026     0.182   199.393     0.291     0.000 .00000E+00 0.000E+00 0.000E+00 0.000E+00 0.000E+00 0.000E+00
BIGSUB   7        0    7.13143E+00   729.100     0.000   111.640    63.757   116.348    13.653   429.678     4.750   622.069     2.906     4.413     0.713     0.070     0.058     0.310   187.323     0.397     0.000 .00000E+00 0.000E+00 0.000E+00 0.000E+00 0.000E+00 0.000E+00
BIGSUB   8        0    7.90085E-01   729.100     0.000   111.675    67.570   153.832    33.261   379.152    10.376   601.560     2.519     2.675     0.409     0.026     0.042     0.214   211.248     0.330     0.001 .00000E+00 0.000E+00 0.000E+00 0.000E+00 0.000E+00 0.000E+00
BIGSUB   9        0    7.37142E-01   729.100     0.000   111.684    68.915   129.688    36.497   411.829    12.926   603.818     0.486     1.429     0.175     0.010     0.043     0.129   178.117     0.261     0.001 .00000E+00 0.000E+00 0.000E+00 0.000E+00 0.000E+00 0.000E+00
BIGSUB   1        0    8.24419E+00   116.200     0.000   134.709    73.716    97.473     1.705     2.888     4.827    84.055     0.026     0.026     0.004     0.001     0.000     0.002    76.083     0.077     0.000 .00000E+00 0.000E+00 0.000E+00 0.000E+00 0.000E+00 0.000E+00
BIGSUB   2        0    8.13482E+00   116.200     0.000   134.712    73.203    91.704     1.419     3.230     3.366    82.563     0.018     0.023     0.003     0.001     0.000     0.002    75.781     0.072     0.000 .00000E+00 0.000E+00 0.000E+00 0.000E+00 0.000E+00 0.000E+00
BIGSUB   3        0    8.12733E+00   116.200     0.000   134.720    73.851    97.196     1.771     2.753     5.108    84.143     0.014     0.021     0.003     0.000     0.000     0.002    76.009     0.072     0.000 .00000E+00 0.000E+00 0.000E+00 0.000E+00 0.000E+00 0.000E+00
BIGSUB   4        0    8.18951E+00   116.200     0.000   134.741    71.032    79.212     0.632     5.017     1.233    78.544     0.031     0.029     0.004     0.001     0.000     0.003    72.222     0.070     0.000 .00000E+00 0.000E+00 0.000E+00 0.000E+00 0.000E+00 0.000E+00
BIGSUB   5        0    8.25558E+00   116.200     0.000   134.721    73.169    83.836     1.563     3.809     1.250    78.040     0.026     0.024     0.003     0.001     0.000     0.002    72.803     0.073     0.000 .00000E+00 0.000E+00 0.000E+00 0.000E+00 0.000E+00 0.000E+00
BIGSUB   6        0    8.15319E+00   116.200     0.000   134.708    74.707   104.966     2.578     2.430     9.707    87.223     0.012     0.018     0.002     0.000     0.000     0.002    74.585     0.070     0.001 .00000E+00 0.000E+00 0.000E+00 0.000E+00 0.000E+00 0.000E+00
BIGSUB   7        0    8.13143E+00   116.200     0.000   134.707    72.929    99.397     2.593     3.966     6.437    83.795     0.066     0.059     0.009     0.007     0.001     0.004    73.044     0.118     0.001 .00000E+00 0.000E+00 0.000E+00 0.000E+00 0.000E+00 0.000E+00
BIGSUB   8        0    8.90085E-01   116.200     0.000   134.691    77.746   136.702     4.035     3.458    17.181    93.291     0.123     0.025     0.004     0.002     0.000     0.002    71.811     0.079     0.002 .00000E+00 0.000E+00 0.000E+00 0.000E+00 0.000E+00 0.000E+00
BIGSUB   9        0    8.37142E-01   116.200     0.000   134.687    78.674   113.155     4.396     5.006    18.915    88.780     0.006     0.011     0.001     0.000     0.001     0.001    63.869     0.060     0.002 .00000E+00 0.000E+00 0.000E+00 0.000E+00 0.000E+00 0.000E+00
BIGSUB   1        0    9.24419E+00   109.600     0.000   137.610    56.848    95.559     0.027     7.108     1.916    57.275     0.151     0.176     0.022     0.002     0.000     0.017    48.008     0.061     0.000 .00000E+00 0.000E+00 0.000E+00 0.000E+00 0.000E+00 0.000E+00
BIGSUB   2        0    9.13482E+00   109.600     0.000   137.628    56.269    89.519     0.029     7.771     1.312    57.466     0.133     0.178     0.022     0.001     0.000     0.017    48.204     0.058     0.000 .00000E+00 0.000E+00 0.000E+00 0.000E+00 0.000E+00 0.000E+00
BIGSUB   3        0    9.12733E+00   109.600     0.000   137.686    56.977    95.323     0.000     6.923     2.071    57.299     0.103     0.164     0.020     0.001     0.000     0.015    48.047     0.058     0.000 .00000E+00 0.000E+00 0.000E+00 0.000E+00 0.000E+00 0.000E+00
BIGSUB   4        0    9.18951E+00   109.600     0.000   137.839    54.497    76.869     0.009    11.038     0.454    58.469     0.160     0.186     0.023     0.003     0.001     0.018    46.906     0.061     0.000 .00000E+00 0.000E+00 0.000E+00 0.000E+00 0.000E+00 0.000E+00
BIGSUB   5        0    9.25558E+00   109.600     0.000   137.689    56.655    82.060     0.075     8.901     0.432    55.719     0.119     0.184     0.023     0.002     0.000     0.017    46.215     0.059     0.000 .00000E+00 0.000E+00 0.000E+00 0.000E+00 0.000E+00 0.000E+00
BIGSUB   6        0    9.15319E+00   109.600     0.000   137.603    58.027   103.973     0.137     6.343     4.389    57.723     0.090     0.147     0.018     0.001     0.000     0.014    46.530     0.058     0.000 .00000E+00 0.000E+00 0.000E+00 0.000E+00 0.000E+00 0.000E+00
BIGSUB   7        0    9.13143E+00   109.600     0.000   137.595    56.503    97.457     0.620     9.068     2.832    58.022     0.203     0.220     0.031     0.009     0.002     0.022    45.799     0.096     0.000 .00000E+00 0.000E+00 0.000E+00 0.000E+00 0.000E+00 0.000E+00
BIGSUB   8        0    9.90085E-01   109.600     0.000   137.483    61.133   136.355     0.257     6.425     7.516    57.209     0.204     0.095     0.013     0.003     0.001     0.010    42.500     0.065     0.000 .00000E+00 0.000E+00 0.000E+00 0.000E+00 0.000E+00 0.000E+00
BIGSUB   9        0    9.37142E-01   109.600     0.000   137.454    60.725   114.309     0.355     8.896     8.990    57.579     0.044     0.100     0.012     0.001     0.001     0.009    38.802     0.052     0.001 .00000E+00 0.000E+00 0.000E+00 0.000E+00 0.000E+00 0.000E+00
BIGSUB   1        0   10.24419E+00    90.500     0.000   176.538    52.366    85.915     0.019     7.307     0.070    47.828     0.206     0.247     0.031     0.005     0.000     0.024    40.241     0.051     0.000 .00000E+00 0.000E+00 0.000E+00 0.000E+00 0.000E+00 0.000E+00
BIGSUB   2        0   10.13482E+00    90.500     0.000   176.548    51.579    79.864     0.023     7.986     0.072    48.564     0.191     0.257     0.032     0.004     0.000     0.024    40.350     0.048     0.000 .00000E+00 0.000E+00 0.000E+00 0.000E+00 0.000E+00 0.000E+00
BIGSUB   3        0   10.12733E+00    90.500     0.000   176.582    52.421    85.784     0.000     7.136     0.058    47.688     0.148     0.248     0.031     0.004     0.000     0.023    40.273     0.048     0.000 .00000E+00 0.000E+00 0.000E+00 0.000E+00 0.000E+00 0.000E+00
BIGSUB   4        0   10.18951E+00    90.500     0.000   176.671    49.271    67.805     0.004    11.238     0.015    50.138     0.219     0.279     0.035     0.008     0.001     0.027    38.824     0.049     0.000 .00000E+00 0.000E+00 0.000E+00 0.000E+00 0.000E+00 0.000E+00
BIGSUB   5        0   10.25558E+00    90.500     0.000   176.584    51.704    72.400     0.054     9.295     0.104    48.446     0.159     0.295     0.036     0.005     0.000     0.028    38.900     0.053     0.000 .00000E+00 0.000E+00 0.000E+00 0.000E+00 0.000E+00 0.000E+00
BIGSUB   6        0   10.15319E+00    90.500     0.000   176.534    53.695    94.915     0.102     6.566     0.467    46.426     0.130     0.224     0.028     0.003     0.000     0.021    39.001     0.049     0.000 .00000E+00 0.000E+00 0.000E+00 0.000E+00 0.000E+00 0.000E+00
BIGSUB   7        0   10.13143E+00    90.500     0.000   176.529    52.198    87.817     0.297     9.214     0.821    48.553     0.231     0.280     0.037     0.024     0.002     0.028    38.239     0.073     0.000 .00000E+00 0.000E+00 0.000E+00 0.000E+00 0.000E+00 0.000E+00
BIGSUB   8        0   10.90085E-01    90.500     0.000   176.464    57.468   126.815     0.201     6.293     0.692    43.558     0.166     0.134     0.018     0.008     0.000     0.014    35.921     0.055     0.000 .00000E+00 0.000E+00 0.000E+00 0.000E+00 0.000E+00 0.000E+00
BIGSUB   9        0   10.37142E-01    90.500     0.000   176.447    56.502   105.562     1.235     8.641     1.705    43.830     0.064     0.163     0.020     0.003     0.001     0.015    32.730     0.046     0.000 .00000E+00 0.000E+00 0.000E+00 0.000E+00 0.000E+00 0.000E+00
BIGSUB   1        0   11.24419E+00   332.200     0.000   134.703    87.340   103.630     3.636    42.326     0.053   223.362     2.178     2.412     0.298     0.004     0.002     0.231   180.823     0.329     0.000 .00000E+00 0.000E+00 0.000E+00 0.000E+00 0.000E+00 0.000E+00
BIGSUB   2        0   11.13482E+00   332.200     0.000   134.717    86.660    97.633     2.408    45.265     0.100   225.213     2.081     2.489     0.306     0.003     0.002     0.237   179.730     0.315     0.000 .00000E+00 0.000E+00 0.000E+00 0.000E+00 0.000E+00 0.000E+00
BIGSUB   3        0   11.12733E+00   332.200     0.000   134.766    87.439   103.264     4.054    41.666     0.071   223.110     1.626     2.459     0.302     0.003     0.002     0.232   181.203     0.319     0.000 .00000E+00 0.000E+00 0.000E+00 0.000E+00 0.000E+00 0.000E+00
BIGSUB   4        0   11.18951E+00   332.200     0.000   134.894    85.344    84.506     0.801    58.745     0.013   229.039     2.320     2.727     0.340     0.005     0.002     0.269   170.234     0.312     0.000 .00000E+00 0.000E+00 0.000E+00 0.000E+00 0.000E+00 0.000E+00
BIGSUB   5        0   11.25558E+00   332.200     0.000   134.769    87.149    93.318     0.734    52.041     0.113   223.270     1.643     2.778     0.341     0.003     0.002     0.264   171.003     0.304     0.000 .00000E+00 0.000E+00 0.000E+00 0.000E+00 0.000E+00 0.000E+00
BIGSUB   6        0   11.15319E+00   332.200     0.000   134.696    88.236   111.258     9.506    39.142     1.244   219.325     1.430     2.313     0.284     0.002     0.002     0.217   178.629     0.322     0.000 .00000E+00 0.000E+00 0.000E+00 0.000E+00 0.000E+00 0.000E+00
BIGSUB   7        0   11.13143E+00   332.200     0.000   134.690    86.784   105.576     6.121    49.788     1.017   222.396     2.100     2.473     0.316     0.013     0.006     0.250   171.368     0.412     0.000 .00000E+00 0.000E+00 0.000E+00 0.000E+00 0.000E+00 0.000E+00
BIGSUB   8        0   11.90085E-01   332.200     0.000   134.596    90.043   145.343    15.216    36.976     1.119   209.717     1.065     1.742     0.217     0.007     0.003     0.167   171.113     0.340     0.000 .00000E+00 0.000E+00 0.000E+00 0.000E+00 0.000E+00 0.000E+00
BIGSUB   9        0   11.37142E-01   332.200     0.000   134.572    91.534   119.729    21.329    50.143     4.078   209.568     0.708     1.741     0.213     0.002     0.005     0.160   154.736     0.296     0.000 .00000E+00 0.000E+00 0.000E+00 0.000E+00 0.000E+00 0.000E+00
BIGSUB   1        0   12.24419E+00   450.400     0.000   147.373    97.255   111.446     9.039   115.845     2.107   337.859     4.787     6.521     0.802     0.005     0.004     0.623   219.744     0.293     0.000 .00000E+00 0.000E+00 0.000E+00 0.000E+00 0.000E+00 0.000E+00
BIGSUB   2        0   12.13482E+00   450.400     0.000   147.382    96.807   105.949     6.617   122.265     1.201   339.269     4.637     6.789     0.834     0.005     0.004     0.647   215.684     0.280     0.000 .00000E+00 0.000E+00 0.000E+00 0.000E+00 0.000E+00 0.000E+00
BIGSUB   3        0   12.12733E+00   450.400     0.000   147.411    97.322   111.140     9.519   114.860     2.438   337.597     3.620     6.825     0.836     0.004     0.004     0.643   220.124     0.288     0.000 .00000E+00 0.000E+00 0.000E+00 0.000E+00 0.000E+00 0.000E+00
BIGSUB   4        0   12.18951E+00   450.400     0.000   147.488    95.215    94.199     2.556   145.809     0.387   342.654     5.282     7.691     0.958     0.007     0.005     0.762   196.412     0.254     0.000 .00000E+00 0.000E+00 0.000E+00 0.000E+00 0.000E+00 0.000E+00
BIGSUB   5        0   12.25558E+00   450.400     0.000   147.413    97.211    97.865     7.109   135.905     0.292   341.235     3.548     7.600     0.933     0.005     0.005     0.723   204.934     0.303     0.000 .00000E+00 0.000E+00 0.000E+00 0.000E+00 0.000E+00 0.000E+00
BIGSUB   6        0   12.15319E+00   450.400     0.000   147.369    97.845   118.568    16.974   108.018     5.936   333.869     3.186     6.451     0.791     0.004     0.005     0.605   219.583     0.294     0.001 .00000E+00 0.000E+00 0.000E+00 0.000E+00 0.000E+00 0.000E+00
BIGSUB   7        0   12.13143E+00   450.400     0.000   147.365    96.766   113.296    11.452   127.006     3.168   337.151     4.356     6.548     0.821     0.017     0.010     0.654   206.744     0.332     0.003 .00000E+00 0.000E+00 0.000E+00 0.000E+00 0.000E+00 0.000E+00
BIGSUB   8        0   12.90085E-01   450.400     0.000   147.309    99.579   150.497    28.595    93.330     9.285   326.300     1.806     5.271     0.650     0.009     0.007     0.496   223.139     0.337     0.002 .00000E+00 0.000E+00 0.000E+00 0.000E+00 0.000E+00 0.000E+00
BIGSUB   9        0   12.37142E-01   450.400     0.000   147.295   100.732   125.685    32.587   116.954    13.054   324.292     1.569     4.939     0.604     0.005     0.011     0.453   193.614     0.286     0.003 .00000E+00 0.000E+00 0.000E+00 0.000E+00 0.000E+00 0.000E+00
BIGSUB   1        0 2014.24419E+00  3844.300     0.000  1708.332  1036.475   111.446    60.415   952.769    36.111  2788.590    21.697    39.274     4.849     0.280     0.046     3.783  1797.047     2.190     0.003 .00000E+00 0.000E+00 0.000E+00 0.000E+00 0.000E+00 0.000E+00
BIGSUB   2        0 2014.13482E+00  3844.300     0.000  1708.366  1032.773   105.949    44.286   995.469    24.406  2795.096    20.699    40.606     4.975     0.044     0.044     3.953  1773.287     1.759     0.003 .00000E+00 0.000E+00 0.000E+00 0.000E+00 0.000E+00 0.000E+00
BIGSUB   3        0 2014.12733E+00  3844.300     0.000  1708.480  1037.403   111.140    64.010   946.125    39.031  2787.188    16.062    37.394     4.572     0.036     0.044     3.601  1799.199     1.779     0.004 .00000E+00 0.000E+00 0.000E+00 0.000E+00 0.000E+00 0.000E+00
BIGSUB   4        0 2014.18951E+00  3844.300     0.000  1708.775  1031.542    94.199    17.335  1149.021     8.605  2803.138    26.033    55.721     6.924     0.056     0.050     5.671  1644.757     1.541     0.001 .00000E+00 0.000E+00 0.000E+00 0.000E+00 0.000E+00 0.000E+00
BIGSUB   5        0 2014.25558E+00  3844.300     0.000  1708.486  1036.770    97.865    42.344  1079.677     8.486  2779.164    16.125    41.756     5.122     0.045     0.046     4.067  1689.189     1.801     0.001 .00000E+00 0.000E+00 0.000E+00 0.000E+00 0.000E+00 0.000E+00
BIGSUB   6        0 2014.15319E+00  3844.300     0.000  1708.317  1047.444   118.568   116.089   900.453    82.547  2771.796    14.157    34.919     4.272     0.037     0.050     3.351  1783.532     1.783     0.010 .00000E+00 0.000E+00 0.000E+00 0.000E+00 0.000E+00 0.000E+00
BIGSUB   7        0 2014.13143E+00  3844.300     0.000  1708.302  1036.134   113.296    80.186  1030.462    53.905  2787.030    22.572    44.318     5.687     1.204     0.098     4.218  1699.048     4.521     0.029 .00000E+00 0.000E+00 0.000E+00 0.000E+00 0.000E+00 0.000E+00
BIGSUB   8        0 2014.90085E-01  3844.301     0.000  1708.083  1071.804   150.497   193.023   814.573   138.515  2732.647    11.837    28.330     3.566     0.624     0.072     2.638  1770.806     2.882     0.023 .00000E+00 0.000E+00 0.000E+00 0.000E+00 0.000E+00 0.000E+00
BIGSUB   9        0 2014.37142E-01  3844.301     0.000  1708.027  1082.299   125.685   227.261   984.659   175.595  2725.825     6.966    25.067     3.064     0.079     0.101     2.352  1555.096     1.872     0.023 .00000E+00 0.000E+00 0.000E+00 0.000E+00 0.000E+00 0.000E+00
BIGSUB   1        0    1.24419E+00   682.500     0.000   138.995   101.489   113.050    20.982   207.540     6.039   556.071    22.319    35.626     4.352     0.004     0.012     3.448   342.259     0.447     0.001 .00000E+00 0.000E+00 0.000E+00 0.000E+00 0.000E+00 0.000E+00
BIGSUB   2        0    1.13482E+00   682.500     0.000   139.014   101.284   107.882    16.704   219.286     4.148   558.449    21.937    36.663     4.480     0.005     0.013     3.570   334.844     0.436     0.001 .00000E+00 0.000E+00 0.000E+00 0.000E+00 0.000E+00 0.000E+00
BIGSUB   3        0    1.12733E+00   682.500     0.000   139.077   101.569   112.661    22.085   206.012     6.435   555.369    17.012    34.056     4.158     0.004     0.013     3.293   342.674     0.441     0.001 .00000E+00 0.000E+00 0.000E+00 0.000E+00 0.000E+00 0.000E+00
BIGSUB   4        0    1.18951E+00   682.500     0.000   139.242   100.669    99.026     8.158   265.073     1.490   562.967    27.967    43.989     5.411     0.007     0.015     4.330   296.336     0.384     0.000 .00000E+00 0.000E+00 0.000E+00 0.000E+00 0.000E+00 0.000E+00
BIGSUB   5        0    1.25558E+00   682.500     0.000   139.081   101.307    99.588    16.694   235.121     1.368   556.217    15.903    35.498     4.341     0.005     0.014     3.452   319.570     0.444     0.000 .00000E+00 0.000E+00 0.000E+00 0.000E+00 0.000E+00 0.000E+00
BIGSUB   6        0    1.15319E+00   682.500     0.000   138.987   101.826   119.969    34.492   194.228    12.548   549.138    15.022    32.062     3.915     0.004     0.013     3.085   341.909     0.436     0.004 .00000E+00 0.000E+00 0.000E+00 0.000E+00 0.000E+00 0.000E+00
BIGSUB   7        0    1.13143E+00   682.500     0.000   138.978   101.161   115.451    24.615   226.387     8.216   554.803    20.222    35.189     4.326     0.012     0.018     3.374   319.885     0.466     0.007 .00000E+00 0.000E+00 0.000E+00 0.000E+00 0.000E+00 0.000E+00
BIGSUB   8        0    1.90085E-01   682.500     0.000   138.857   102.687   151.764    54.940   165.833    21.670   537.055     7.174    25.212     3.082     0.007     0.016     2.351   348.805     0.457     0.006 .00000E+00 0.000E+00 0.000E+00 0.000E+00 0.000E+00 0.000E+00
BIGSUB   9        0    1.37142E-01   682.500     0.000   138.826   103.759   129.271    60.472   205.674    25.423   533.250     7.399    23.203     2.833     0.006     0.024     2.182   301.261     0.394     0.009 .00000E+00 0.000E+00 0.000E+00 0.000E+00 0.000E+00 0.000E+00
BIGSUB   1        0    2.24419E+00   310.400     0.000   148.534   110.126    95.278     5.687    57.874     8.254   230.828     7.186     5.401     0.660     0.176     0.002     0.521   164.386     0.329     0.002 .00000E+00 0.000E+00 0.000E+00 0.000E+00 0.000E+00 0.000E+00
BIGSUB   2        0    2.13482E+00   310.400     0.000   148.553   109.596    90.157     4.333    61.958     5.776   229.960     7.051     5.697     0.696     0.002     0.002     0.555   161.987     0.080     0.002 .00000E+00 0.000E+00 0.000E+00 0.000E+00 0.000E+00 0.000E+00
BIGSUB   3        0    2.12733E+00   310.400     0.000   148.618   110.336    94.816     6.012    57.177     8.708   230.850     5.421     5.635     0.688     0.000     0.002     0.544   164.631     0.070     0.002 .00000E+00 0.000E+00 0.000E+00 0.000E+00 0.000E+00 0.000E+00
BIGSUB   4        0    2.18951E+00   310.400     0.000   148.786   106.447    82.015     2.014    79.933     2.105   229.913     9.752     6.784     0.835     0.003     0.002     0.669   147.772     0.061     0.001 .00000E+00 0.000E+00 0.000E+00 0.000E+00 0.000E+00 0.000E+00
BIGSUB   5        0    2.25558E+00   310.400     0.000   148.621   109.338    82.611     4.047    67.825     2.122   225.686     5.204     6.236     0.763     0.002     0.002     0.607   155.511     0.082     0.000 .00000E+00 0.000E+00 0.000E+00 0.000E+00 0.000E+00 0.000E+00
BIGSUB   6        0    2.15319E+00   310.400     0.000   148.526   110.840   102.128    10.576    53.330    16.345   233.600     4.784     5.432     0.663     0.002     0.002     0.521   163.351     0.072     0.005 .00000E+00 0.000E+00 0.000E+00 0.000E+00 0.000E+00 0.000E+00
BIGSUB   7        0    2.13143E+00   310.400     0.000   148.517   108.486    98.274     7.848    65.481    11.045   232.287     6.929     5.911     0.730     0.775     0.002     0.563   155.357     1.811     0.010 .00000E+00 0.000E+00 0.000E+00 0.000E+00 0.000E+00 0.000E+00
BIGSUB   8        0    2.90085E-01   310.400     0.000   148.394   111.729   134.140    17.370    46.429    29.095   239.016     2.611     5.058     0.618     0.405     0.003     0.471   162.553     0.725     0.010 .00000E+00 0.000E+00 0.000E+00 0.000E+00 0.000E+00 0.000E+00
BIGSUB   9        0    2.37142E-01   310.400     0.000   148.363   113.127   109.355    20.552    62.514    32.362   238.833     2.345     4.471     0.546     0.023     0.006     0.418   142.868     0.224     0.012 .00000E+00 0.000E+00 0.000E+00 0.000E+00 0.000E+00 0.000E+00
BIGSUB   1        0    3.24419E+00   174.400     0.000   136.288    99.081    90.795     0.042     4.900     7.152    86.998     0.016     0.010     0.001     0.000     0.000     0.001    74.566     0.001     0.001 .00000E+00 0.000E+00 0.000E+00 0.000E+00 0.000E+00 0.000E+00
BIGSUB   2        0    3.13482E+00   174.400     0.000   136.302    98.432    84.751     0.045     5.624     4.871    86.188     0.002     0.003     0.000     0.000     0.000     0.000    75.402     0.001     0.001 .00000E+00 0.000E+00 0.000E+00 0.000E+00 0.000E+00 0.000E+00
BIGSUB   3        0    3.12733E+00   174.400     0.000   136.348    99.112    90.636     0.000     4.603     7.517    87.093     0.002     0.002     0.000     0.000     0.000     0.000    74.571     0.001     0.001 .00000E+00 0.000E+00 0.000E+00 0.000E+00 0.000E+00 0.000E+00
BIGSUB   4        0    3.18951E+00   174.400     0.000   136.467    97.003    74.855     0.008    10.739     1.764    86.134     0.023     0.009     0.001     0.000     0.000     0.001    73.501     0.001     0.000 .00000E+00 0.000E+00 0.000E+00 0.000E+00 0.000E+00 0.000E+00
BIGSUB   5        0    3.25558E+00   174.400     0.000   136.350    98.763    78.265     0.117     6.973     1.704    81.561     0.022     0.004     0.000     0.000     0.000     0.000    72.604     0.002     0.000 .00000E+00 0.000E+00 0.000E+00 0.000E+00 0.000E+00 0.000E+00
BIGSUB   6        0    3.15319E+00   174.400     0.000   136.283   100.197   100.274     0.183     4.240    14.173    90.455     0.001     0.002     0.000     0.000     0.000     0.000    71.359     0.001     0.003 .00000E+00 0.000E+00 0.000E+00 0.000E+00 0.000E+00 0.000E+00
BIGSUB   7        0    3.13143E+00   174.400     0.000   136.276    99.506    93.381     0.434     7.839     9.490    89.023     0.077     0.069     0.009     0.000     0.000     0.006    71.211     0.011     0.007 .00000E+00 0.000E+00 0.000E+00 0.000E+00 0.000E+00 0.000E+00
BIGSUB   8        0    3.90085E-01   174.400     0.000   136.189   102.295   135.731     0.430     7.004    25.280    96.237     0.187     0.106     0.013     0.001     0.000     0.010    62.840     0.004     0.005 .00000E+00 0.000E+00 0.000E+00 0.000E+00 0.000E+00 0.000E+00
BIGSUB   9        0    3.37142E-01   174.400     0.000   136.167   103.472   112.543     0.317     8.883    28.170    96.651     0.001     0.001     0.000     0.000     0.001     0.000    58.316     0.016     0.005 .00000E+00 0.000E+00 0.000E+00 0.000E+00 0.000E+00 0.000E+00
BIGSUB   1        0    4.24419E+00   364.500     0.000   144.799    99.146    99.897     2.479    98.723     1.106   255.449     0.227     0.166     0.021     0.067     0.002     0.014   155.299     0.051     0.000 .00000E+00 0.000E+00 0.000E+00 0.000E+00 0.000E+00 0.000E+00
BIGSUB   2        0    4.13482E+00   364.500     0.000   144.797    98.691    93.858     1.561   101.958     0.817   256.459     0.080     0.099     0.012     0.001     0.003     0.009   153.438     0.023     0.000 .00000E+00 0.000E+00 0.000E+00 0.000E+00 0.000E+00 0.000E+00
BIGSUB   3        0    4.12733E+00   364.500     0.000   144.790    98.962    99.764     2.778    98.230     1.340   255.559     0.061     0.094     0.011     0.001     0.003     0.009   155.650     0.025     0.000 .00000E+00 0.000E+00 0.000E+00 0.000E+00 0.000E+00 0.000E+00
BIGSUB   4        0    4.18951E+00   364.500     0.000   144.772    99.792    79.661     0.514   118.590     0.229   259.988     0.255     0.153     0.019     0.000     0.002     0.014   141.058     0.014     0.000 .00000E+00 0.000E+00 0.000E+00 0.000E+00 0.000E+00 0.000E+00
BIGSUB   5        0    4.25558E+00   364.500     0.000   144.790    99.539    88.186     0.483   111.322     0.400   255.437     0.208     0.104     0.013     0.001     0.003     0.010   143.477     0.025     0.000 .00000E+00 0.000E+00 0.000E+00 0.000E+00 0.000E+00 0.000E+00
BIGSUB   6        0    4.15319E+00   364.500     0.000   144.800   100.016   107.848     7.034    95.633     4.714   255.405     0.056     0.097     0.012     0.001     0.004     0.009   154.475     0.025     0.000 .00000E+00 0.000E+00 0.000E+00 0.000E+00 0.000E+00 0.000E+00
BIGSUB   7        0    4.13143E+00   364.500     0.000   144.800   101.423   100.603     3.648   106.428     3.485   256.364     0.961     0.820     0.106     0.185     0.002     0.065   146.034     0.239     0.003 .00000E+00 0.000E+00 0.000E+00 0.000E+00 0.000E+00 0.000E+00
BIGSUB   8        0    4.90085E-01   364.500     0.000   144.813   103.094   142.287    10.806    93.579     6.656   251.848     1.258     0.618     0.076     0.133     0.006     0.056   150.667     0.080     0.001 .00000E+00 0.000E+00 0.000E+00 0.000E+00 0.000E+00 0.000E+00
BIGSUB   9        0    4.37142E-01   364.500     0.000   144.816   103.500   116.033    16.769   105.989    13.914   255.948     0.029     0.083     0.010     0.001     0.010     0.007   134.940     0.025     0.001 .00000E+00 0.000E+00 0.000E+00 0.000E+00 0.000E+00 0.000E+00
BIGSUB   1        0    5.24419E+00   421.400     0.000   126.159    88.549   111.239     9.817    88.953     3.221   314.731     0.156     0.131     0.016     0.026     0.003     0.011   222.254     0.215     0.000 .00000E+00 0.000E+00 0.000E+00 0.000E+00 0.000E+00 0.000E+00
BIGSUB   2        0    5.13482E+00   421.400     0.000   126.142    89.425   105.598     7.268    94.051     2.189   314.904     0.076     0.098     0.012     0.008     0.003     0.009   218.435     0.181     0.000 .00000E+00 0.000E+00 0.000E+00 0.000E+00 0.000E+00 0.000E+00
BIGSUB   3        0    5.12733E+00   421.400     0.000   126.085    88.672   110.923    10.329    88.277     3.457   314.533     0.059     0.095     0.012     0.008     0.003     0.009   222.479     0.191     0.000 .00000E+00 0.000E+00 0.000E+00 0.000E+00 0.000E+00 0.000E+00
BIGSUB   4        0    5.18951E+00   421.400     0.000   125.936    95.718    93.099     2.916   112.256     0.767   309.749     0.167     0.114     0.014     0.004     0.002     0.010   196.624     0.104     0.000 .00000E+00 0.000E+00 0.000E+00 0.000E+00 0.000E+00 0.000E+00
BIGSUB   5        0    5.25558E+00   421.400     0.000   126.082    90.312    97.173     7.950   104.201     0.740   314.634     0.146     0.113     0.014     0.008     0.003     0.010   209.478     0.176     0.000 .00000E+00 0.000E+00 0.000E+00 0.000E+00 0.000E+00 0.000E+00
BIGSUB   6        0    5.15319E+00   421.400     0.000   126.167    89.270   118.392    17.683    82.881     7.490   311.483     0.052     0.092     0.011     0.007     0.004     0.008   220.546     0.185     0.000 .00000E+00 0.000E+00 0.000E+00 0.000E+00 0.000E+00 0.000E+00
BIGSUB   7        0    5.13143E+00   421.400     0.000   126.175    89.244   112.889    12.936    97.325     4.938   311.741     0.541     0.473     0.061     0.009     0.003     0.037   209.086     0.168     0.002 .00000E+00 0.000E+00 0.000E+00 0.000E+00 0.000E+00 0.000E+00
BIGSUB   8        0    5.90085E-01   421.400     0.000   126.283    90.262   150.501    30.022    72.455    12.583   305.942     0.740     0.322     0.040     0.049     0.004     0.029   219.984     0.250     0.001 .00000E+00 0.000E+00 0.000E+00 0.000E+00 0.000E+00 0.000E+00
BIGSUB   9        0    5.37142E-01   421.400     0.000   126.311    92.492   125.422    33.534    92.566    16.536   303.180     0.026     0.072     0.009     0.006     0.009     0.006   192.985     0.162     0.001 .00000E+00 0.000E+00 0.000E+00 0.000E+00 0.000E+00 0.000E+00
BIGSUB   1        0    6.24419E+00   230.400     0.000   162.652    72.151   107.546     3.848    39.123     4.589   162.295     0.084     0.097     0.014     0.011     0.001     0.007   118.286     0.129     0.000 .00000E+00 0.000E+00 0.000E+00 0.000E+00 0.000E+00 0.000E+00
BIGSUB   2        0    6.13482E+00   230.400     0.000   162.620    72.144   101.706     2.875    42.236     3.149   161.952     0.049     0.066     0.008     0.009     0.002     0.006   116.345     0.125     0.000 .00000E+00 0.000E+00 0.000E+00 0.000E+00 0.000E+00 0.000E+00
BIGSUB   3        0    6.12733E+00   230.400     0.000   162.514    72.355   107.205     4.073    38.544     4.878   162.191     0.037     0.064     0.008     0.008     0.002     0.006   118.454     0.130     0.000 .00000E+00 0.000E+00 0.000E+00 0.000E+00 0.000E+00 0.000E+00
BIGSUB   4        0    6.18951E+00   230.400     0.000   162.233    72.989    89.274     1.121    53.780     1.146   160.712     0.088     0.069     0.009     0.012     0.001     0.006   105.690     0.096     0.000 .00000E+00 0.000E+00 0.000E+00 0.000E+00 0.000E+00 0.000E+00
BIGSUB   5        0    6.25558E+00   230.400     0.000   162.508    72.016    93.414     2.675    47.114     1.157   160.187     0.077     0.081     0.010     0.009     0.002     0.007   111.704     0.124     0.000 .00000E+00 0.000E+00 0.000E+00 0.000E+00 0.000E+00 0.000E+00
BIGSUB   6        0    6.15319E+00   230.400     0.000   162.666    72.997   115.009     7.436    35.077     9.578   162.811     0.033     0.058     0.007     0.007     0.002     0.005   117.599     0.129     0.000 .00000E+00 0.000E+00 0.000E+00 0.000E+00 0.000E+00 0.000E+00
BIGSUB   7        0    6.13143E+00   230.400     0.000   162.681    70.761   109.504     5.674    45.122     6.616   163.732     0.241     0.297     0.047     0.026     0.002     0.017   111.606     0.123     0.001 .00000E+00 0.000E+00 0.000E+00 0.000E+00 0.000E+00 0.000E+00
BIGSUB   8        0    6.90085E-01   230.400     0.000   162.884    74.216   147.809    12.374    28.611    16.754   163.540     0.358     0.175     0.026     0.012     0.002     0.011   117.260     0.133     0.001 .00000E+00 0.000E+00 0.000E+00 0.000E+00 0.000E+00 0.000E+00
[...]
BIGSUB   1        0    7.24419E+00   132.200     0.000   126.437    39.324    90.514     0.026    23.319     1.911    82.328     0.077     0.247     0.034     0.021     0.002     0.021    56.742     0.196     0.000 .00000E+00 0.000E+00 0.000E+00 0.000E+00 0.000E+00 0.000E+00
BIGSUB   2        0    7.13482E+00   132.200     0.000   126.419    38.868    83.471     0.034    24.198     1.143    82.557     0.055     0.200     0.025     0.011     0.001     0.019    56.940     0.154     0.000 .00000E+00 0.000E+00 0.000E+00 0.000E+00 0.000E+00 0.000E+00
BIGSUB   3        0    7.12733E+00   132.200     0.000   126.360    39.382    90.295     0.000    22.981     2.148    82.386     0.043     0.171     0.021     0.010     0.001     0.016    56.883     0.157     0.000 .00000E+00 0.000E+00 0.000E+00 0.000E+00 0.000E+00 0.000E+00
BIGSUB   4        0    7.18951E+00   132.200     0.000   126.205    36.050    64.012     0.003    25.877     0.386    83.439     0.074     0.194     0.024     0.011     0.001     0.018    57.041     0.130     0.000 .00000E+00 0.000E+00 0.000E+00 0.000E+00 0.000E+00 0.000E+00
BIGSUB   5        0    7.25558E+00   132.200     0.000   126.357    38.739    75.392     0.073    26.360     0.318    81.797     0.062     0.166     0.020     0.011     0.001     0.016    54.848     0.148     0.000 .00000E+00 0.000E+00 0.000E+00 0.000E+00 0.000E+00 0.000E+00
BIGSUB   6        0    7.15319E+00   132.200     0.000   126.445    39.833    98.748     0.144    21.377     4.152    81.843     0.038     0.155     0.019     0.010     0.001     0.014    55.700     0.151     0.000 .00000E+00 0.000E+00 0.000E+00 0.000E+00 0.000E+00 0.000E+00
BIGSUB   7        0    7.13143E+00   132.200     0.000   126.453    38.564    90.595     0.099    25.552     1.454    81.724     0.157     0.456     0.070     0.069     0.004     0.029    54.299     0.428     0.000 .00000E+00 0.000E+00 0.000E+00 0.000E+00 0.000E+00 0.000E+00
BIGSUB   8        0    7.90085E-01   132.200     0.000   126.566    41.461   130.814     0.313    18.794     7.707    80.381     0.198     0.243     0.038     0.031     0.002     0.017    52.894     0.241     0.000 .00000E+00 0.000E+00 0.000E+00 0.000E+00 0.000E+00 0.000E+00
BIGSUB   9        0    7.37142E-01   132.200     0.000   126.595    42.464   110.807     0.174    22.566     8.197    78.771     0.019     0.096     0.012     0.008     0.002     0.009    46.898     0.130     0.000 .00000E+00 0.000E+00 0.000E+00 0.000E+00 0.000E+00 0.000E+00
BIGSUB   1        0    8.24419E+00   160.100     0.000   189.518    78.726    89.666     0.042     7.575     0.043    81.775     0.057     0.102     0.014     0.008     0.001     0.009    73.878     0.136     0.000 .00000E+00 0.000E+00 0.000E+00 0.000E+00 0.000E+00 0.000E+00
BIGSUB   2        0    8.13482E+00   160.100     0.000   189.483    77.743    82.518     0.047     8.055     0.061    82.798     0.042     0.086     0.011     0.003     0.000     0.008    74.465     0.108     0.000 .00000E+00 0.000E+00 0.000E+00 0.000E+00 0.000E+00 0.000E+00
BIGSUB   3        0    8.12733E+00   160.100     0.000   189.363    78.835    89.589     0.000     7.270     0.018    81.558     0.033     0.072     0.009     0.002     0.000     0.007    73.977     0.110     0.000 .00000E+00 0.000E+00 0.000E+00 0.000E+00 0.000E+00 0.000E+00
BIGSUB   4        0    8.18951E+00   160.100     0.000   189.051    73.252    65.572     0.014    10.178     0.009    84.626     0.059     0.090     0.011     0.004     0.001     0.008    74.332     0.104     0.000 .00000E+00 0.000E+00 0.000E+00 0.000E+00 0.000E+00 0.000E+00
BIGSUB   5        0    8.25558E+00   160.100     0.000   189.357    77.417    75.020     0.119     9.744     0.069    82.505     0.051     0.079     0.010     0.003     0.000     0.007    72.478     0.114     0.000 .00000E+00 0.000E+00 0.000E+00 0.000E+00 0.000E+00 0.000E+00
BIGSUB   6        0    8.15319E+00   160.100     0.000   189.534    80.225    99.481     0.218     6.562     0.185    78.907     0.029     0.063     0.008     0.002     0.000     0.006    71.679     0.108     0.000 .00000E+00 0.000E+00 0.000E+00 0.000E+00 0.000E+00 0.000E+00
BIGSUB   7        0    8.13143E+00   160.100     0.000   189.551    77.694    90.229     1.058    10.009     0.199    81.523     0.111     0.177     0.026     0.027     0.003     0.014    70.987     0.284     0.000 .00000E+00 0.000E+00 0.000E+00 0.000E+00 0.000E+00 0.000E+00
BIGSUB   8        0    8.90085E-01   160.100     0.000   189.778    84.363   132.631     0.416     7.655     0.476    74.163     0.175     0.096     0.014     0.015     0.001     0.008    65.261     0.173     0.000 .00000E+00 0.000E+00 0.000E+00 0.000E+00 0.000E+00 0.000E+00
BIGSUB   9        0    8.37142E-01   160.100     0.000   189.836    85.330   110.669     2.346    11.791     0.315    73.206     0.014     0.040     0.005     0.002     0.001     0.004    60.233     0.101     0.000 .00000E+00 0.000E+00 0.000E+00 0.000E+00 0.000E+00 0.000E+00
BIGSUB   1        0    9.24419E+00   167.200     0.000   114.291    73.022    94.624     0.056     8.384     0.041    89.870     0.124     0.263     0.033     0.003     0.001     0.025    81.240     0.149     0.000 .00000E+00 0.000E+00 0.000E+00 0.000E+00 0.000E+00 0.000E+00
BIGSUB   2        0    9.13482E+00   167.200     0.000   114.320    72.412    86.889     0.096     8.851     0.063    91.016     0.105     0.244     0.030     0.001     0.000     0.023    81.941     0.128     0.000 .00000E+00 0.000E+00 0.000E+00 0.000E+00 0.000E+00 0.000E+00
BIGSUB   3        0    9.12733E+00   167.200     0.000   114.414    73.143    94.378     0.215     8.141     0.000    89.729     0.082     0.207     0.025     0.001     0.000     0.019    81.372     0.128     0.000 .00000E+00 0.000E+00 0.000E+00 0.000E+00 0.000E+00 0.000E+00
BIGSUB   4        0    9.18951E+00   167.200     0.000   114.663    70.783    70.204     0.022    11.134     0.013    92.339     0.128     0.247     0.030     0.002     0.001     0.023    81.113     0.117     0.000 .00000E+00 0.000E+00 0.000E+00 0.000E+00 0.000E+00 0.000E+00
BIGSUB   5        0    9.25558E+00   167.200     0.000   114.419    72.584    80.114     0.159    10.425     0.115    90.089     0.102     0.218     0.027     0.001     0.000     0.021    79.390     0.125     0.000 .00000E+00 0.000E+00 0.000E+00 0.000E+00 0.000E+00 0.000E+00
BIGSUB   6        0    9.15319E+00   167.200     0.000   114.279    73.913   103.609     2.353     7.639     0.366    87.966     0.072     0.188     0.023     0.001     0.000     0.018    79.597     0.128     0.000 .00000E+00 0.000E+00 0.000E+00 0.000E+00 0.000E+00 0.000E+00
BIGSUB   7        0    9.13143E+00   167.200     0.000   114.266    72.461    94.868     1.824    10.438     0.955    89.920     0.178     0.331     0.046     0.011     0.002     0.030    78.273     0.261     0.000 .00000E+00 0.000E+00 0.000E+00 0.000E+00 0.000E+00 0.000E+00
BIGSUB   8        0    9.90085E-01   167.200     0.000   114.085    76.629   141.024     1.992     8.783     0.536    81.659     0.209     0.164     0.023     0.007     0.001     0.016    71.762     0.163     0.000 .00000E+00 0.000E+00 0.000E+00 0.000E+00 0.000E+00 0.000E+00
BIGSUB   9        0    9.37142E-01   167.200     0.000   114.038    76.949   114.934     6.227    12.620     3.119    83.875     0.036     0.119     0.015     0.001     0.001     0.011    67.460     0.116     0.000 .00000E+00 0.000E+00 0.000E+00 0.000E+00 0.000E+00 0.000E+00
BIGSUB   1        0   10.24419E+00   159.000     0.000   159.666    81.293    96.128     0.046     1.972     0.041    71.738     0.047     0.069     0.009     0.004     0.000     0.007    69.566     0.088     0.000 .00000E+00 0.000E+00 0.000E+00 0.000E+00 0.000E+00 0.000E+00
BIGSUB   2        0   10.13482E+00   159.000     0.000   159.691    80.142    88.389     0.166     2.133     0.068    72.763     0.037     0.066     0.008     0.001     0.000     0.006    70.438     0.076     0.000 .00000E+00 0.000E+00 0.000E+00 0.000E+00 0.000E+00 0.000E+00
BIGSUB   3        0   10.12733E+00   159.000     0.000   159.773    81.394    96.006     0.000     1.728     0.000    71.526     0.028     0.054     0.007     0.001     0.000     0.005    69.630     0.078     0.000 .00000E+00 0.000E+00 0.000E+00 0.000E+00 0.000E+00 0.000E+00
BIGSUB   4        0   10.18951E+00   159.000     0.000   159.988    77.871    72.197     0.016     3.638     0.014    74.693     0.062     0.090     0.011     0.002     0.000     0.008    70.980     0.078     0.000 .00000E+00 0.000E+00 0.000E+00 0.000E+00 0.000E+00 0.000E+00
BIGSUB   5        0   10.25558E+00   159.000     0.000   159.777    80.887    81.899     0.130     3.210     0.115    71.861     0.053     0.083     0.010     0.001     0.000     0.008    68.412     0.080     0.000 .00000E+00 0.000E+00 0.000E+00 0.000E+00 0.000E+00 0.000E+00
BIGSUB   6        0   10.15319E+00   159.000     0.000   159.655    82.968   106.214     0.225     1.544     0.214    69.181     0.024     0.047     0.006     0.001     0.000     0.004    67.127     0.079     0.000 .00000E+00 0.000E+00 0.000E+00 0.000E+00 0.000E+00 0.000E+00
BIGSUB   7        0   10.13143E+00   159.000     0.000   159.644    80.849    96.505     1.196     3.859     1.083    72.085     0.082     0.109     0.015     0.015     0.001     0.011    66.932     0.141     0.000 .00000E+00 0.000E+00 0.000E+00 0.000E+00 0.000E+00 0.000E+00
BIGSUB   8        0   10.90085E-01   159.000     0.000   159.487    87.274   143.365     1.053     4.577     0.567    64.986     0.151     0.054     0.008     0.009     0.000     0.006    59.381     0.109     0.000 .00000E+00 0.000E+00 0.000E+00 0.000E+00 0.000E+00 0.000E+00
BIGSUB   9        0   10.37142E-01   159.000     0.000   159.447    87.106   119.149     1.817     6.025     1.647    64.006     0.014     0.039     0.005     0.001     0.001     0.004    55.767     0.080     0.000 .00000E+00 0.000E+00 0.000E+00 0.000E+00 0.000E+00 0.000E+00
BIGSUB   1        0   11.24419E+00   334.500     0.000   144.996    83.681    94.881     4.434    87.954     0.056   252.683     2.887     5.631     0.692     0.008     0.005     0.537   164.546     0.358     0.000 .00000E+00 0.000E+00 0.000E+00 0.000E+00 0.000E+00 0.000E+00
BIGSUB   2        0   11.13482E+00   334.500     0.000   145.009    82.885    88.330     2.721    90.802     0.173   254.102     2.749     5.517     0.675     0.005     0.004     0.522   163.028     0.331     0.000 .00000E+00 0.000E+00 0.000E+00 0.000E+00 0.000E+00 0.000E+00
BIGSUB   3        0   11.12733E+00   334.500     0.000   145.052    83.731    94.486     4.913    87.241     0.000   252.381     2.166     5.099     0.624     0.005     0.004     0.481   165.005     0.339     0.000 .00000E+00 0.000E+00 0.000E+00 0.000E+00 0.000E+00 0.000E+00
BIGSUB   4        0   11.18951E+00   334.500     0.000   145.164    81.025    72.347     0.928   103.160     0.020   257.228     3.058     5.559     0.682     0.007     0.004     0.523   154.002     0.307     0.000 .00000E+00 0.000E+00 0.000E+00 0.000E+00 0.000E+00 0.000E+00
BIGSUB   5        0   11.25558E+00   334.500     0.000   145.054    83.613    84.505     0.633   101.257     0.158   252.720     2.187     5.215     0.638     0.005     0.004     0.493   151.213     0.300     0.000 .00000E+00 0.000E+00 0.000E+00 0.000E+00 0.000E+00 0.000E+00
BIGSUB   6        0   11.15319E+00   334.500     0.000   144.990    84.630   102.731    10.478    84.020     1.787   249.677     1.918     4.762     0.583     0.005     0.005     0.447   163.621     0.339     0.000 .00000E+00 0.000E+00 0.000E+00 0.000E+00 0.000E+00 0.000E+00
BIGSUB   7        0   11.13143E+00   334.500     0.000   144.984    83.252    96.307     5.345    95.301     1.570   252.632     2.753     5.303     0.667     0.020     0.011     0.520   155.584     0.457     0.001 .00000E+00 0.000E+00 0.000E+00 0.000E+00 0.000E+00 0.000E+00
BIGSUB   8        0   11.90085E-01   334.500     0.000   144.902    87.293   137.722    17.363    79.583     1.346   241.803     1.412     3.676     0.457     0.013     0.007     0.349   160.485     0.392     0.000 .00000E+00 0.000E+00 0.000E+00 0.000E+00 0.000E+00 0.000E+00
BIGSUB   9        0   11.37142E-01   334.500     0.000   144.881    87.433   112.028    21.830    93.807     4.921   242.038     0.964     3.298     0.403     0.004     0.010     0.303   142.817     0.308     0.001 .00000E+00 0.000E+00 0.000E+00 0.000E+00 0.000E+00 0.000E+00
BIGSUB   1        0   12.24419E+00   398.800     0.000   134.101    88.842   109.889     8.344    66.778     0.619   283.967     5.820     6.887     0.845     0.004     0.003     0.660   216.439     0.354     0.000 .00000E+00 0.000E+00 0.000E+00 0.000E+00 0.000E+00 0.000E+00
BIGSUB   2        0   12.13482E+00   398.800     0.000   134.120    88.307   104.160     6.006    71.236     0.337   285.763     5.683     7.130     0.872     0.003     0.003     0.677   214.093     0.329     0.000 .00000E+00 0.000E+00 0.000E+00 0.000E+00 0.000E+00 0.000E+00
BIGSUB   3        0   12.12733E+00   398.800     0.000   134.185    88.917   109.571     8.766    65.821     1.256   284.037     4.379     6.455     0.789     0.003     0.002     0.611   216.819     0.336     0.000 .00000E+00 0.000E+00 0.000E+00 0.000E+00 0.000E+00 0.000E+00
BIGSUB   4        0   12.18951E+00   398.800     0.000   134.353    86.627    90.052     2.258    87.280     0.049   289.297     7.089     8.223     1.009     0.005     0.003     0.774   201.925     0.305     0.000 .00000E+00 0.000E+00 0.000E+00 0.000E+00 0.000E+00 0.000E+00
BIGSUB   5        0   12.25558E+00   398.800     0.000   134.188    88.933    95.521     6.946    84.226     0.224   289.025     4.516     7.298     0.893     0.004     0.003     0.691   204.496     0.353     0.000 .00000E+00 0.000E+00 0.000E+00 0.000E+00 0.000E+00 0.000E+00
BIGSUB   6        0   12.15319E+00   398.800     0.000   134.093    89.590   116.767    15.998    60.751     4.970   281.018     3.834     5.940     0.726     0.003     0.003     0.560   215.027     0.339     0.001 .00000E+00 0.000E+00 0.000E+00 0.000E+00 0.000E+00 0.000E+00
BIGSUB   7        0   12.13143E+00   398.800     0.000   134.084    88.528   110.959    11.201    75.886     2.349   283.624     5.435     6.647     0.829     0.013     0.007     0.658   205.203     0.429     0.002 .00000E+00 0.000E+00 0.000E+00 0.000E+00 0.000E+00 0.000E+00
BIGSUB   8        0   12.90085E-01   398.800     0.000   133.960    91.592   148.296    27.473    52.468     6.716   272.729     2.054     3.730     0.461     0.008     0.004     0.359   213.111     0.411     0.001 .00000E+00 0.000E+00 0.000E+00 0.000E+00 0.000E+00 0.000E+00
BIGSUB   9        0   12.37142E-01   398.800     0.000   133.929    92.611   123.556    31.476    72.636    11.057   271.738     1.867     4.211     0.515     0.004     0.007     0.388   187.491     0.328     0.002 .00000E+00 0.000E+00 0.000E+00 0.000E+00 0.000E+00 0.000E+00
BIGSUB   1        0 2016.24419E+00  3003.700     0.000  1725.970   847.659   109.889    49.503   641.295    34.528  2151.074     9.989    14.807     1.825     0.170     0.025     1.394  1472.201     1.720     0.002 .00000E+00 0.000E+00 0.000E+00 0.000E+00 0.000E+00 0.000E+00
BIGSUB   2        0 2016.13482E+00  3003.700     0.000  1725.992   842.718   104.160    37.770   672.909    23.766  2156.798     9.331    14.476     1.771     0.037     0.024     1.373  1457.781     1.334     0.002 .00000E+00 0.000E+00 0.000E+00 0.000E+00 0.000E+00 0.000E+00
BIGSUB   3        0 2016.12733E+00  3003.700     0.000  1726.063   848.197   109.571    52.541   635.120    37.233  2150.329     7.223    13.055     1.597     0.034     0.025     1.235  1474.745     1.349     0.003 .00000E+00 0.000E+00 0.000E+00 0.000E+00 0.000E+00 0.000E+00
BIGSUB   4        0 2016.18951E+00  3003.700     0.000  1726.247   838.364    90.052    17.631   801.874     8.402  2169.545    11.803    16.513     2.026     0.039     0.024     1.555  1358.182     1.179     0.001 .00000E+00 0.000E+00 0.000E+00 0.000E+00 0.000E+00 0.000E+00
BIGSUB   5        0 2016.25558E+00  3003.700     0.000  1726.067   845.169    95.521    36.402   743.335     9.007  2141.015     7.804    14.285     1.748     0.036     0.025     1.353  1386.433     1.322     0.001 .00000E+00 0.000E+00 0.000E+00 0.000E+00 0.000E+00 0.000E+00
BIGSUB   6        0 2016.15319E+00  3003.700     0.000  1725.961   858.366   116.767    92.636   602.574    78.563  2143.822     6.348    12.072     1.477     0.033     0.028     1.136  1457.147     1.340     0.008 .00000E+00 0.000E+00 0.000E+00 0.000E+00 0.000E+00 0.000E+00
BIGSUB   7        0 2016.13143E+00  3003.700     0.000  1725.951   849.164   110.959    64.568   707.351    50.595  2152.627    11.205    17.386     2.211     0.629     0.042     1.591  1390.868     3.843     0.025 .00000E+00 0.000E+00 0.000E+00 0.000E+00 0.000E+00 0.000E+00
BIGSUB   8        0 2016.90085E-01  3003.700     0.000  1725.813   888.331   148.296   149.706   549.017   132.755  2114.760     7.120    11.626     1.451     0.348     0.038     1.073  1424.068     2.327     0.016 .00000E+00 0.000E+00 0.000E+00 0.000E+00 0.000E+00 0.000E+00
BIGSUB   9        0 2016.37142E-01  3003.700     0.000  1725.777   889.283   123.556   178.872   681.192   164.233  2117.540     3.123     8.425     1.030     0.040     0.064     0.775  1261.714     1.435     0.019 .00000E+00 0.000E+00 0.000E+00 0.000E+00 0.000E+00 0.000E+00
BIGSUB   1        0  4.0.24419E+00  3445.525     0.000  1685.516   937.481   109.889    55.489   787.234    34.151  2487.743    31.207    39.537     4.860     0.264     0.034     3.808  1663.518     2.037     0.004 .00000E+00 0.000E+00 0.000E+00 0.000E+00 0.000E+00 0.000E+00
BIGSUB   2        0  4.0.13482E+00  3445.525     0.000  1685.494   932.749   104.160    41.562   825.167    23.149  2494.813    29.957    39.924     4.888     0.037     0.034     3.870  1644.366     1.685     0.003 .00000E+00 0.000E+00 0.000E+00 0.000E+00 0.000E+00 0.000E+00
BIGSUB   3        0  4.0.12733E+00  3445.525     0.000  1685.420   938.158   109.571    58.918   780.756    36.927  2486.582    23.410    38.524     4.710     0.032     0.033     3.701  1665.885     1.704     0.004 .00000E+00 0.000E+00 0.000E+00 0.000E+00 0.000E+00 0.000E+00
BIGSUB   4        0  4.0.18951E+00  3445.524     0.000  1685.224   927.114    90.052    18.221   975.480     8.130  2508.807    34.730    44.435     5.500     0.053     0.042     4.430  1524.262     1.497     0.001 .00000E+00 0.000E+00 0.000E+00 0.000E+00 0.000E+00 0.000E+00
BIGSUB   5        0  4.0.25558E+00  3445.525     0.000  1685.416   935.638    95.521    39.464   905.529     8.234  2479.218    22.797    41.031     5.027     0.038     0.036     3.971  1563.426     1.691     0.001 .00000E+00 0.000E+00 0.000E+00 0.000E+00 0.000E+00 0.000E+00
BIGSUB   6        0  4.0.15319E+00  3445.525     0.000  1685.526   948.502   116.767   105.464   742.548    78.556  2473.788    20.641    36.554     4.470     0.035     0.038     3.493  1647.314     1.699     0.012 .00000E+00 0.000E+00 0.000E+00 0.000E+00 0.000E+00 0.000E+00
BIGSUB   7        0  4.0.13143E+00  3445.525     0.000  1685.536   937.100   110.959    73.567   862.299    51.838  2489.018    29.879    41.554     5.249     1.253     0.070     3.984  1571.122     3.847     0.027 .00000E+00 0.000E+00 0.000E+00 0.000E+00 0.000E+00 0.000E+00
BIGSUB   8        0  4.0.90085E-01  3445.525     0.000  1685.676   977.014   148.296   172.401   675.281   132.691  2435.953    14.117    32.048     3.973     0.569     0.054     2.990  1619.209     2.584     0.023 .00000E+00 0.000E+00 0.000E+00 0.000E+00 0.000E+00 0.000E+00
BIGSUB   9        0  4.0.37142E-01  3445.525     0.000  1685.711   982.160   123.556   205.446   827.579   168.651  2435.561    10.220    28.049     3.428     0.051     0.082     2.613  1428.902     1.727     0.027 .00000E+00 0.000E+00 0.000E+00 0.000E+00 0.000E+00 0.000E+00
