1
    SWAT Dec 23 2016    VER 2016/Rev 664                                                                 0/ 0/   0      0: 0: 0

    General Input/Output section (file.cio):                                        
    2/7/2020 21:40:12 QSWAT Workflow v1.5.2                                         
                                                                                    
         Number of years in run:   12
         Area of watershed:        1.363 km2
1
    SWAT Dec 23 2016    VER 2016/Rev 664                                            

    General Input/Output section (file.cio):                                        
    2/7/2020 21:40:12 QSWAT Workflow v1.5.2                                         
                                                                                    
Annual Summary for Watershed in year    1 of simulation

UNIT                                    PERCO    TILE                           WATER     SED     NO3     NO3     NO3     NO3        N       P       P
TIME     PREC    SURQ    LATQ     GWQ    LATE       Q     SW       ET     PET   YIELD   YIELD    SURQ    LATQ    PERC    CROP  ORGANIC SOLUBLE ORGANIC TILENO3
         (mm)    (mm)    (mm)    (mm)    (mm)    (mm)    (mm)    (mm)    (mm)    (mm)   (t/ha)  ------------------(kg nutrient/ha)-------------------- (kg/ha)
1
    SWAT Dec 23 2016    VER 2016/Rev 664                                            

    General Input/Output section (file.cio):                                        
    2/7/2020 21:40:12 QSWAT Workflow v1.5.2                                         
                                                                                    
Annual Summary for Watershed in year    2 of simulation

UNIT                                    PERCO    TILE                           WATER     SED     NO3     NO3     NO3     NO3        N       P       P
TIME     PREC    SURQ    LATQ     GWQ    LATE       Q     SW       ET     PET   YIELD   YIELD    SURQ    LATQ    PERC    CROP  ORGANIC SOLUBLE ORGANIC TILENO3
         (mm)    (mm)    (mm)    (mm)    (mm)    (mm)    (mm)    (mm)    (mm)    (mm)   (t/ha)  ------------------(kg nutrient/ha)-------------------- (kg/ha)
1
    SWAT Dec 23 2016    VER 2016/Rev 664                                            

    General Input/Output section (file.cio):                                        
    2/7/2020 21:40:12 QSWAT Workflow v1.5.2                                         
                                                                                    
Annual Summary for Watershed in year    3 of simulation

UNIT                                    PERCO    TILE                           WATER     SED     NO3     NO3     NO3     NO3        N       P       P
TIME     PREC    SURQ    LATQ     GWQ    LATE       Q     SW       ET     PET   YIELD   YIELD    SURQ    LATQ    PERC    CROP  ORGANIC SOLUBLE ORGANIC TILENO3
         (mm)    (mm)    (mm)    (mm)    (mm)    (mm)    (mm)    (mm)    (mm)    (mm)   (t/ha)  ------------------(kg nutrient/ha)-------------------- (kg/ha)
1
    SWAT Dec 23 2016    VER 2016/Rev 664                                            

    General Input/Output section (file.cio):                                        
    2/7/2020 21:40:12 QSWAT Workflow v1.5.2                                         
                                                                                    
Annual Summary for Watershed in year    4 of simulation

UNIT                                    PERCO    TILE                           WATER     SED     NO3     NO3     NO3     NO3        N       P       P
TIME     PREC    SURQ    LATQ     GWQ    LATE       Q     SW       ET     PET   YIELD   YIELD    SURQ    LATQ    PERC    CROP  ORGANIC SOLUBLE ORGANIC TILENO3
         (mm)    (mm)    (mm)    (mm)    (mm)    (mm)    (mm)    (mm)    (mm)    (mm)   (t/ha)  ------------------(kg nutrient/ha)-------------------- (kg/ha)
1
    SWAT Dec 23 2016    VER 2016/Rev 664                                            

    General Input/Output section (file.cio):                                        
    2/7/2020 21:40:12 QSWAT Workflow v1.5.2                                         
                                                                                    
Annual Summary for Watershed in year    5 of simulation

UNIT                                    PERCO    TILE                           WATER     SED     NO3     NO3     NO3     NO3        N       P       P
TIME     PREC    SURQ    LATQ     GWQ    LATE       Q     SW       ET     PET   YIELD   YIELD    SURQ    LATQ    PERC    CROP  ORGANIC SOLUBLE ORGANIC TILENO3
         (mm)    (mm)    (mm)    (mm)    (mm)    (mm)    (mm)    (mm)    (mm)    (mm)   (t/ha)  ------------------(kg nutrient/ha)-------------------- (kg/ha)
1
    SWAT Dec 23 2016    VER 2016/Rev 664                                            

    General Input/Output section (file.cio):                                        
    2/7/2020 21:40:12 QSWAT Workflow v1.5.2                                         
                                                                                    
Annual Summary for Watershed in year    6 of simulation

UNIT                                    PERCO    TILE                           WATER     SED     NO3     NO3     NO3     NO3        N       P       P
TIME     PREC    SURQ    LATQ     GWQ    LATE       Q     SW       ET     PET   YIELD   YIELD    SURQ    LATQ    PERC    CROP  ORGANIC SOLUBLE ORGANIC TILENO3
         (mm)    (mm)    (mm)    (mm)    (mm)    (mm)    (mm)    (mm)    (mm)    (mm)   (t/ha)  ------------------(kg nutrient/ha)-------------------- (kg/ha)
1
    SWAT Dec 23 2016    VER 2016/Rev 664                                            

    General Input/Output section (file.cio):                                        
    2/7/2020 21:40:12 QSWAT Workflow v1.5.2                                         
                                                                                    
Annual Summary for Watershed in year    7 of simulation

UNIT                                    PERCO    TILE                           WATER     SED     NO3     NO3     NO3     NO3        N       P       P
TIME     PREC    SURQ    LATQ     GWQ    LATE       Q     SW       ET     PET   YIELD   YIELD    SURQ    LATQ    PERC    CROP  ORGANIC SOLUBLE ORGANIC TILENO3
         (mm)    (mm)    (mm)    (mm)    (mm)    (mm)    (mm)    (mm)    (mm)    (mm)   (t/ha)  ------------------(kg nutrient/ha)-------------------- (kg/ha)
1
    SWAT Dec 23 2016    VER 2016/Rev 664                                            

    General Input/Output section (file.cio):                                        
    2/7/2020 21:40:12 QSWAT Workflow v1.5.2                                         
                                                                                    
Annual Summary for Watershed in year    8 of simulation

UNIT                                    PERCO    TILE                           WATER     SED     NO3     NO3     NO3     NO3        N       P       P
TIME     PREC    SURQ    LATQ     GWQ    LATE       Q     SW       ET     PET   YIELD   YIELD    SURQ    LATQ    PERC    CROP  ORGANIC SOLUBLE ORGANIC TILENO3
         (mm)    (mm)    (mm)    (mm)    (mm)    (mm)    (mm)    (mm)    (mm)    (mm)   (t/ha)  ------------------(kg nutrient/ha)-------------------- (kg/ha)
1
    SWAT Dec 23 2016    VER 2016/Rev 664                                            

    General Input/Output section (file.cio):                                        
    2/7/2020 21:40:12 QSWAT Workflow v1.5.2                                         
                                                                                    
Annual Summary for Watershed in year    9 of simulation

UNIT                                    PERCO    TILE                           WATER     SED     NO3     NO3     NO3     NO3        N       P       P
TIME     PREC    SURQ    LATQ     GWQ    LATE       Q     SW       ET     PET   YIELD   YIELD    SURQ    LATQ    PERC    CROP  ORGANIC SOLUBLE ORGANIC TILENO3
         (mm)    (mm)    (mm)    (mm)    (mm)    (mm)    (mm)    (mm)    (mm)    (mm)   (t/ha)  ------------------(kg nutrient/ha)-------------------- (kg/ha)
    1  576.60  146.95  301.73    6.86   20.45    0.00  114.75   87.65  117.35  455.87   10.94    0.01    0.43    0.57    0.00    21.20    0.01    2.59    0.00
    2  144.70   38.61   90.04    8.30    6.25    0.00   67.28   67.39  106.79  137.34    5.54    0.27    0.17    0.18    6.00     5.72    0.00    0.70    0.00
    3   93.80    0.27   37.43    5.71    0.00    0.00   38.92   84.44  115.37   43.86    0.01    0.00    0.04    0.00    2.48     0.01    0.00    0.00    0.00
    4  238.90   28.72  104.23    0.91    0.10    0.00   63.99   66.00  112.38  134.21    0.11    0.00    0.02    0.00    1.28     0.10    0.00    0.01    0.00
    5  134.70    1.68   74.16    0.14    0.09    0.00   59.91   76.91  133.62   76.28    0.01    0.00    0.05    0.00    0.09     0.01    0.00    0.00    0.00
    6  299.10   92.93  125.75    0.19    0.69    0.00   78.74   60.98   88.56  219.09    0.31    0.00    0.18    0.00    0.00     0.35    0.01    0.04    0.00
    7  248.80   13.12  147.14    0.53    3.00    0.00   90.80   73.71  103.06  160.97    0.07    0.00    0.21    0.04    0.02     0.09    0.00    0.01    0.00
    8  467.80  147.56  225.03    2.34   11.18    0.00  102.98   71.64  112.66  375.11    1.16    0.01    0.24    0.18    0.01     1.91    0.01    0.25    0.00
    9  166.70   16.78   75.91    4.87    1.78    0.00   94.12   81.36  150.44   97.77    0.33    0.00    0.06    0.03    0.00     0.41    0.00    0.05    0.00
   10  234.50   48.40   94.59    3.09    1.38    0.00  102.53   75.34  163.61  146.29    1.48    0.01    0.11    0.03    0.00     1.84    0.00    0.23    0.00
   11  180.90   24.54   80.65    0.79    1.02    0.00  101.56   76.38  149.99  106.16    1.38    0.00    0.10    0.03    0.00     1.55    0.00    0.19    0.00
   12  309.80   45.57  156.29    1.87    5.65    0.00  105.65   96.33  145.86  203.90    4.79    0.00    0.24    0.17    0.00     4.59    0.00    0.57    0.00

 2013 3096.30  605.14 1512.96   35.61   51.60    0.00  105.65  918.13 1499.68 2156.84   26.13    0.32    1.85    1.23    9.88    37.78    0.04    4.65    0.00
1
    SWAT Dec 23 2016    VER 2016/Rev 664                                            

    General Input/Output section (file.cio):                                        
    2/7/2020 21:40:12 QSWAT Workflow v1.5.2                                         
                                                                                    
Annual Summary for Watershed in year   10 of simulation

UNIT                                    PERCO    TILE                           WATER     SED     NO3     NO3     NO3     NO3        N       P       P
TIME     PREC    SURQ    LATQ     GWQ    LATE       Q     SW       ET     PET   YIELD   YIELD    SURQ    LATQ    PERC    CROP  ORGANIC SOLUBLE ORGANIC TILENO3
         (mm)    (mm)    (mm)    (mm)    (mm)    (mm)    (mm)    (mm)    (mm)    (mm)   (t/ha)  ------------------(kg nutrient/ha)-------------------- (kg/ha)
    1  549.60  157.28  284.25    5.90   17.57    0.00  106.30   96.62  142.78  447.67   10.21    0.01    0.39    0.47    0.00    27.44    0.01    3.37    0.00
    2  351.60   66.85  173.46    6.04    7.48    0.00  108.15   99.17  144.15  246.62    0.50    0.14    0.31    0.12    7.05     0.98    0.00    0.12    0.00
    3  222.80   35.54   94.46    6.16    1.75    0.00   72.73  130.31  167.20  136.48    0.10    0.00    0.02    0.04    2.98     0.11    0.00    0.01    0.00
    4  466.60   63.18  232.21    2.70    7.15    0.00  109.29  116.94  131.84  298.37    0.15    0.04    0.09    0.02    1.18     0.13    0.00    0.02    0.00
    5  221.20   35.44  113.88    4.14    3.29    0.00  105.76   81.73  141.48  153.75    0.07    0.00    0.13    0.02    0.41     0.07    0.00    0.01    0.00
    6  204.50   27.54   98.66    4.21    3.51    0.00   98.15   83.37  138.29  130.70    0.06    0.00    0.11    0.03    0.00     0.05    0.00    0.01    0.00
    7  729.10  425.04  191.41    3.30   12.96    0.00  112.98   64.82  111.62  620.00    1.55    0.02    0.30    0.15    0.02     2.35    0.03    0.32    0.00
    8  116.20    3.50   73.82    5.44    1.92    0.00   95.83   73.64  134.72   83.09    0.03    0.00    0.08    0.03    0.01     0.03    0.00    0.00    0.00
    9  109.60    8.15   46.55    2.32    0.12    0.00   94.15   56.93  137.65   57.30    0.14    0.00    0.06    0.00    0.00     0.17    0.00    0.02    0.00
   10   90.50    8.35   38.98    0.27    0.10    0.00   84.69   52.32  176.56   47.85    0.18    0.01    0.05    0.00    0.00     0.25    0.00    0.03    0.00
   11  332.20   46.88  174.93    0.47    4.76    0.00  102.65   87.31  134.74  222.47    1.83    0.00    0.33    0.14    0.00     2.47    0.00    0.31    0.00
   12  450.40  123.05  211.60    2.77   10.64    0.00  109.88   97.19  147.39  337.62    3.99    0.01    0.29    0.30    0.00     6.81    0.01    0.84    0.00

 2014 3844.30 1000.79 1734.22   43.72   71.25    0.00  109.88 1040.35 1708.41 2781.91   18.81    0.24    2.16    1.32   11.65    40.87    0.05    5.06    0.00
1
    SWAT Dec 23 2016    VER 2016/Rev 664                                            

    General Input/Output section (file.cio):                                        
    2/7/2020 21:40:12 QSWAT Workflow v1.5.2                                         
                                                                                    
Annual Summary for Watershed in year   11 of simulation

UNIT                                    PERCO    TILE                           WATER     SED     NO3     NO3     NO3     NO3        N       P       P
TIME     PREC    SURQ    LATQ     GWQ    LATE       Q     SW       ET     PET   YIELD   YIELD    SURQ    LATQ    PERC    CROP  ORGANIC SOLUBLE ORGANIC TILENO3
         (mm)    (mm)    (mm)    (mm)    (mm)    (mm)    (mm)    (mm)    (mm)    (mm)   (t/ha)  ------------------(kg nutrient/ha)-------------------- (kg/ha)
    1  682.50  219.24  328.05    6.88   23.26    0.00  112.04  101.48  139.04  554.45   18.94    0.01    0.44    0.63    0.00    35.25    0.01    4.31    0.00
    2  310.40   62.73  158.50    9.26    6.70    0.00   94.52  109.54  148.58  230.86    6.26    0.13    0.33    0.17    6.83     5.81    0.00    0.71    0.00
    3  174.40    6.60   72.23    7.98    0.13    0.00   90.49   99.17  136.32   87.24    0.03    0.00    0.00    0.01    2.43     0.02    0.00    0.00    0.00
    4  364.50  104.37  149.11    2.20    3.33    0.00   98.48   99.94  144.79  256.05    0.31    0.04    0.05    0.02    1.11     0.22    0.00    0.03    0.00
    5  421.40   94.62  213.53    3.96   11.47    0.00  109.44   90.34  126.12  312.47    0.20    0.01    0.18    0.05    0.21     0.16    0.00    0.02    0.00
    6  230.40   42.34  113.92    5.32    4.61    0.00  105.88   72.43  162.58  161.93    0.10    0.01    0.12    0.03    0.00     0.10    0.00    0.01    0.00
    7  101.30    2.86   45.07    3.39    0.51    0.00   88.50   71.45  169.94   51.67    0.01    0.00    0.05    0.00    0.02     0.01    0.00    0.00    0.00
    8  171.70   36.01   79.91    1.14    1.74    0.00   83.77   58.82  172.00  117.34    0.16    0.01    0.15    0.03    0.01     0.25    0.00    0.03    0.00
    9   30.50    0.02    8.93    0.40    0.00    0.00   75.48   29.84  151.12    9.57    0.00    0.00    0.02    0.00    0.00     0.00    0.00    0.00    0.00
   10  211.10   27.05  106.73    0.28    1.67    0.00   85.41   65.32  148.17  134.25    0.38    0.01    0.22    0.04    0.00     0.59    0.00    0.07    0.00
   11  541.90  187.48  243.80    0.54   12.74    0.00  107.99   73.00  148.94  431.97    7.84    0.01    0.42    0.34    0.00    10.98    0.01    1.36    0.00
   12  597.70  267.00  227.10    4.37   14.46    0.00  112.64   80.83  160.16  498.67   17.00    0.00    0.29    0.37    0.00    11.63    0.01    1.43    0.00

 2015 3837.80 1050.34 1746.88   45.71   80.63    0.00  112.64  952.17 1807.75 2846.47   51.23    0.23    2.28    1.69   10.60    65.02    0.05    7.99    0.00
1
    SWAT Dec 23 2016    VER 2016/Rev 664                                            

    General Input/Output section (file.cio):                                        
    2/7/2020 21:40:12 QSWAT Workflow v1.5.2                                         
                                                                                    
Annual Summary for Watershed in year   12 of simulation

UNIT                                    PERCO    TILE                           WATER     SED     NO3     NO3     NO3     NO3        N       P       P
TIME     PREC    SURQ    LATQ     GWQ    LATE       Q     SW       ET     PET   YIELD   YIELD    SURQ    LATQ    PERC    CROP  ORGANIC SOLUBLE ORGANIC TILENO3
         (mm)    (mm)    (mm)    (mm)    (mm)    (mm)    (mm)    (mm)    (mm)    (mm)   (t/ha)  ------------------(kg nutrient/ha)-------------------- (kg/ha)
    1  122.10    5.25   61.32    7.84    1.52    0.00   87.78   85.21  179.11   74.73    0.46    0.00    0.04    0.04    0.00     0.66    0.00    0.08    0.00
    2  182.20    7.14   87.27    4.53    0.31    0.00   83.95   91.00  176.49   99.23    0.04    0.08    0.23    0.02    7.21     0.08    0.00    0.01    0.00
    3  302.60   43.39  137.68    1.07    1.82    0.00  100.30  101.89  136.29  182.42    0.11    0.00    0.02    0.05    3.18     0.15    0.00    0.02    0.00
    4  986.50  403.62  436.09    4.55   34.58    0.00  115.17   81.13   98.99  844.53    0.50    0.01    0.11    0.11    0.69     0.88    0.01    0.11    0.00
    5   55.90   12.72   54.04   11.18    3.22    0.00   84.39   34.69  132.59   78.42    0.02    0.00    0.03    0.01    0.23     0.04    0.00    0.00    0.00
    6    2.60    0.00    0.44    7.41    0.00    0.00   73.78   12.76  133.47    8.30    0.00    0.00    0.01    0.00    0.00     0.00    0.00    0.00    0.00
    7  132.20   23.98   55.59    2.11    0.07    0.00   87.43   38.93  126.40   82.07    0.08    0.02    0.19    0.00    0.02     0.22    0.00    0.03    0.00
    8  160.10    8.60   72.28    0.11    0.25    0.00   87.43   78.25  189.44   81.31    0.06    0.01    0.14    0.00    0.01     0.09    0.00    0.01    0.00
    9  167.20    9.43   79.48    0.29    0.81    0.00   92.37   72.97  114.36   89.44    0.12    0.00    0.14    0.02    0.00     0.23    0.00    0.03    0.00
   10  159.00    2.85   68.06    0.25    0.31    0.00   94.28   81.34  159.72   71.34    0.05    0.00    0.09    0.01    0.00     0.07    0.00    0.01    0.00
   11  334.50   92.65  158.65    0.63    5.20    0.00   93.44   83.63  145.03  252.08    2.43    0.01    0.34    0.16    0.00     5.16    0.01    0.63    0.00
   12  398.80   72.67  209.74    1.84   10.07    0.00  107.63   88.84  134.15  284.40    4.99    0.00    0.35    0.31    0.00     6.72    0.00    0.83    0.00

 2016 3003.70  682.30 1420.64   41.82   58.19    0.00  107.63  850.63 1726.02 2148.27    8.84    0.14    1.69    0.73   11.34    14.31    0.03    1.76    0.00
1
    SWAT Dec 23 2016    VER 2016/Rev 664                                            

    General Input/Output section (file.cio):                                        
    2/7/2020 21:40:12 QSWAT Workflow v1.5.2                                         
                                                                                    
    FINAL VALUES

1
    SWAT Dec 23 2016    VER 2016/Rev 664                                            

    General Input/Output section (file.cio):                                        
    2/7/2020 21:40:12 QSWAT Workflow v1.5.2                                         
                                                                                    
                                            Average Plant Values (kg/ha)

  HRU       1 SUB   1 FRSE  Yld =  5885.0 BIOM =   8407.2
  HRU       2 SUB   1 FRSE  Yld =  2500.5 BIOM =   3572.1
  HRU       3 SUB   1 FRSE  Yld =  5209.1 BIOM =   7441.6
  HRU       4 SUB   1 AGRL  Yld =  5669.5 BIOM =  16298.3
  HRU       5 SUB   1 AGRL  Yld =  5435.6 BIOM =  15693.6
  HRU       6 SUB   2 SWCH  Yld = 25554.0 BIOM =  44010.8
  HRU       7 SUB   2 FRSE  Yld =  4000.5 BIOM =   5715.0
  HRU       8 SUB   2 FRSE  Yld =  5915.2 BIOM =   8450.2
  HRU       9 SUB   2 FRSE  Yld =  5209.9 BIOM =   7442.7
  HRU      10 SUB   2 FRSD  Yld =  4070.3 BIOM =   8412.6
  HRU      11 SUB   2 FRSD  Yld =  5311.1 BIOM =  11042.8
  HRU      12 SUB   2 FRSD  Yld =  4081.9 BIOM =   8434.8
  HRU      13 SUB   2 FRSD  Yld =  4092.5 BIOM =   8455.4
  HRU      14 SUB   3 FRSE  Yld =  5869.6 BIOM =   8385.2
  HRU      15 SUB   3 FRSE  Yld =  5213.8 BIOM =   7448.3
  HRU      16 SUB   4 FRSE  Yld =  5915.3 BIOM =   8450.5
  HRU      17 SUB   4 FRSE  Yld =  5205.2 BIOM =   7436.0
  HRU      18 SUB   4 BARR  Yld =     0.0 BIOM =      0.9
  HRU      19 SUB   4 FRSD  Yld =  4059.7 BIOM =   8392.6
  HRU      20 SUB   4 AGRL  Yld =  5776.3 BIOM =  16602.7
  HRU      21 SUB   5 SWCH  Yld = 21644.9 BIOM =  37777.7
  HRU      22 SUB   5 FRSE  Yld =  5947.0 BIOM =   8495.8
  HRU      23 SUB   5 FRSE  Yld =  2505.8 BIOM =   3579.7
  HRU      24 SUB   5 FRSE  Yld =  2481.0 BIOM =   3544.3
  HRU      25 SUB   5 FRSE  Yld =  5035.7 BIOM =   7193.8
  HRU      26 SUB   5 BARR  Yld =     0.0 BIOM =      0.9
  HRU      27 SUB   5 FRSD  Yld =  4072.2 BIOM =   8416.2
  HRU      28 SUB   6 FRSE  Yld =  4003.5 BIOM =   5719.3
  HRU      29 SUB   6 FRSE  Yld =  5800.9 BIOM =   8286.9
  HRU      30 SUB   6 FRSE  Yld =  2482.3 BIOM =   3546.2
  HRU      31 SUB   6 FRSE  Yld =  5213.1 BIOM =   7447.3
  HRU      32 SUB   6 FRSD  Yld =  4079.0 BIOM =   8429.2
  HRU      33 SUB   6 FRSD  Yld =  5000.6 BIOM =  10384.9
  HRU      34 SUB   6 AGRL  Yld =  5781.7 BIOM =  16618.2
  HRU      35 SUB   7 AGRL  Yld =  5717.0 BIOM =  16433.5
  HRU      36 SUB   7 AGRL  Yld =  5441.1 BIOM =  15702.0
  HRU      37 SUB   7 AGRL  Yld =  5696.5 BIOM =  16375.0
  HRU      38 SUB   7 AGRL  Yld =  5454.1 BIOM =  15711.3
  HRU      39 SUB   7 AGRL  Yld =  5749.9 BIOM =  16527.2
  HRU      40 SUB   7 SWCH  Yld = 21644.3 BIOM =  37776.1
  HRU      41 SUB   7 FRSE  Yld =  5936.5 BIOM =   8480.8
  HRU      42 SUB   7 FRSE  Yld =  5209.1 BIOM =   7441.6
  HRU      43 SUB   7 FRSD  Yld =  4913.7 BIOM =  10232.7
  HRU      44 SUB   7 FRSD  Yld =  4064.2 BIOM =   8401.1
  HRU      45 SUB   7 BARR  Yld =     0.0 BIOM =      0.9
  HRU      46 SUB   8 BARR  Yld =     0.0 BIOM =      1.0
  HRU      47 SUB   8 BARR  Yld =     0.0 BIOM =      1.0
  HRU      48 SUB   8 AGRL  Yld =  5657.1 BIOM =  16263.0
  HRU      49 SUB   8 AGRL  Yld =  5437.5 BIOM =  15697.1
  HRU      50 SUB   8 SWCH  Yld = 25572.6 BIOM =  44031.7
  HRU      51 SUB   8 SWCH  Yld = 21653.8 BIOM =  37791.6
  HRU      52 SUB   8 FRSE  Yld =  3998.3 BIOM =   5711.9
  HRU      53 SUB   8 FRSE  Yld =  4003.2 BIOM =   5718.8
  HRU      54 SUB   8 FRSE  Yld =  5858.9 BIOM =   8369.8
  HRU      55 SUB   8 FRSE  Yld =  5219.7 BIOM =   7456.7
  HRU      56 SUB   8 BARR  Yld =     0.0 BIOM =      1.0
  HRU      57 SUB   9 SWCH  Yld = 21653.9 BIOM =  37791.7
  HRU      58 SUB   9 FRSE  Yld =  5637.6 BIOM =   8053.8
  HRU      59 SUB   9 FRSE  Yld =  5217.1 BIOM =   7452.9
  HRU      60 SUB   9 FRSE  Yld =    46.1 BIOM =     65.8
  HRU      61 SUB   9 FRSE  Yld =  5328.2 BIOM =   7611.7
  HRU      62 SUB   9 FRSE  Yld =    46.1 BIOM =     65.8
  HRU      63 SUB   9 FRSE  Yld =  5936.1 BIOM =   8480.1
  HRU      64 SUB   9 FRSE  Yld =    46.1 BIOM =     65.8

    HRU STATISTICS

                AVE ANNUAL VALUES

   HRU  SUB  SOIL       AREAkm2    CN     AWCmm   USLE_LS  IRRmm  AUTONkh AUTOPkh  MIXEF PRECmm SURQGENmm   GWQmm    ETmm   SEDth  NO3kgh  ORGNkgh BIOMth   YLDth  SURQmm
      1   1   AUA        .686E-01   55.00  165.80    7.70    0.00    0.00    0.00    0.20 3445.52  490.82 1919.67  990.07    6.48    1.95   29.63    8.41    5.89  490.82
      2   1   FAGASA     .205E-03   70.00   97.20    0.11    0.00    0.00    0.00    0.20 3445.52 1009.46 1325.41  996.93    0.21    0.03    3.54    3.57    2.50 1009.31
      3   1   FAGASA     .172E+00   70.00   97.20   13.20    0.00    0.00    0.00    0.20 3445.52  893.68 1620.19  917.18   40.50    1.65   43.13    7.44    5.21  893.68
      4   1   AUA        .154E-02   77.00  165.80    8.99    0.00  199.68    0.00    0.20 3445.52 1312.87 1159.97  938.71   41.83   36.68   57.71   16.30    5.67 1312.87
      5   1   FAGASA     .185E-02   83.00   97.20   11.02    0.00  222.65    0.00    0.20 3445.52 1429.55 1150.10  865.46   79.33   47.12   62.05   15.69    5.44 1429.55
      6   2   AUA        .308E-03   59.00  165.80    2.45    0.00  138.58    0.00    0.20 3445.52  608.70 1675.81 1067.59    0.03    6.93    0.50   39.28   25.55  608.71
      7   2   AUA        .103E-03   55.00  165.80    0.17    0.00    0.00    0.00    0.20 3445.52  515.59 1756.24 1036.83    0.06    0.02    0.92    5.72    4.00  515.57
      8   2   AUA        .274E-01   55.00  165.80    8.57    0.00    0.00    0.00    0.20 3445.52  488.19 1927.42  986.78    6.40    2.01   29.49    8.45    5.92  488.19
      9   2   FAGASA     .992E-01   70.00   97.20   13.25    0.00    0.00    0.00    0.20 3445.52  893.68 1620.20  917.19   38.08    1.65   43.00    7.44    5.21  893.68
     10   2   FAGASA     .236E-02   77.00   97.20   21.18    0.00    0.00    0.00    0.20 3445.52 1130.84 1386.24  925.97   15.47    1.38   45.02    8.72    6.11 1130.85
     11   2   AUA        .718E-03   77.00  165.80    3.82    0.00    0.00    0.00    0.20 3445.52 1337.26 1050.24 1016.04    1.15    1.43   12.74   11.38    7.97 1337.26
     12   2   FAGASA     .380E-02   77.00   97.20   13.93    0.00    0.00    0.00    0.20 3445.52 1130.83 1385.68  925.96   10.71    1.39   41.58    8.75    6.12 1130.83
     13   2   FAGASA     .923E-03   77.00   97.20   12.30    0.00    0.00    0.00    0.20 3445.52 1130.82 1385.57  925.94    7.94    1.40   38.30    8.77    6.14 1130.82
     14   3   AUA        .358E-01   55.00  165.80    7.26    0.00    0.00    0.00    0.20 3445.52  492.13 1915.99  991.74    5.68    1.93   28.55    8.39    5.87  492.13
     15   3   FAGASA     .915E-01   70.00   97.20   10.67    0.00    0.00    0.00    0.20 3445.52  893.68 1619.40  917.19   30.35    1.66   42.43    7.45    5.21  893.68
     16   4   AUA        .156E-01   55.00  165.80    8.57    0.00    0.00    0.00    0.20 3445.52  488.15 1927.40  986.87    5.99    2.01   28.93    8.45    5.92  488.15
     17   4   FAGASA     .826E-01   70.00   97.20   18.63    0.00    0.00    0.00    0.20 3445.52  893.66 1621.49  917.25   52.47    1.65   43.61    7.44    5.21  893.66
     18   4   FAGASA     .205E-03   91.00   97.20   21.18    0.00    0.00    0.00    0.20 3445.52 1895.90  766.48  782.60  506.15    1.71   49.85    0.00    0.00 1895.90
     19   4   FAGASA     .910E-01   77.00   97.20   19.83    0.00    0.00    0.00    0.20 3445.52 1130.73 1386.15  926.09   22.52    1.36   47.83    8.70    6.09 1130.73
     20   4   AUA        .103E-03   77.00  165.80    1.82    0.00  184.90    0.00    0.20 3445.52 1369.98 1016.57  976.85    6.25   15.22   40.19   16.60    5.78 1369.98
     21   5   FAGASA     .205E-03   72.00   97.20   17.22    0.00  146.56    0.00    0.20 3445.52  757.33 1731.70  951.70    0.65   17.46    7.97   33.43   21.64  757.33
     22   5   AUA        .234E-01   55.00  165.80   10.46    0.00    0.00    0.00    0.20 3445.52  481.50 1944.87  979.74    7.57    2.13   30.81    8.50    5.95  481.50
     23   5   FAGASA     .103E-03   70.00   97.20    0.07    0.00    0.00    0.00    0.20 3445.52 1009.52 1325.07  997.03    0.03    0.02    0.70    3.58    2.51 1007.68
     24   5   FAGASA     .513E-03   70.00   97.20    0.35    0.00    0.00    0.00    0.20 3445.52 1009.12 1327.27  996.58    1.05    0.06   13.06    3.54    2.48 1009.12
     25   5   FAGASA     .210E+00   70.00   97.20    7.34    0.00    0.00    0.00    0.20 3445.52  928.21 1550.75  931.79   24.58    1.71   41.93    7.19    5.04  928.21
     26   5   FAGASA     .410E-03   91.00   97.20   17.24    0.00    0.00    0.00    0.20 3445.52 1895.88  766.53  782.57  447.59    1.71   49.85    0.00    0.00 1895.88
     27   5   FAGASA     .209E-01   77.00   97.20   15.28    0.00    0.00    0.00    0.20 3445.52 1130.80 1385.79  926.00   14.48    1.38   44.45    8.73    6.11 1130.80
     28   6   AUA        .410E-03   55.00  165.80    0.35    0.00    0.00    0.00    0.20 3445.52  515.35 1757.41 1036.68    0.22    0.04    3.31    5.72    4.00  515.35
     29   6   AUA        .588E-01   55.00  165.80    5.80    0.00    0.00    0.00    0.20 3445.52  495.71 1903.17  997.34    4.90    1.86   27.41    8.29    5.80  495.71
     30   6   FAGASA     .103E-03   70.00   97.20    0.44    0.00    0.00    0.00    0.20 3445.52 1009.08 1327.67  996.48    1.06    0.06   13.04    3.55    2.48 1009.08
     31   6   FAGASA     .924E-01   70.00   97.20   10.86    0.00    0.00    0.00    0.20 3445.52  893.69 1619.55  917.17   30.92    1.66   42.48    7.45    5.21  893.69
     32   6   FAGASA     .123E-02   77.00   97.20   17.38    0.00    0.00    0.00    0.20 3445.52 1130.85 1385.95  925.95   11.69    1.39   42.47    8.74    6.12 1130.85
     33   6   AUA        .103E-03   77.00  165.80    3.96    0.00    0.00    0.00    0.20 3445.52 1354.45 1001.90 1033.84    1.00    1.07   11.60   10.72    7.50 1354.45
     34   6   AUA        .103E-03   77.00  165.80    2.69    0.00  186.12    0.00    0.20 3445.52 1371.79 1003.01  978.76    9.12   11.00   45.65   16.62    5.78 1371.79
     35   7   AUA        .205E-03   77.00  165.80    3.44    0.00  193.18    0.00    0.20 3445.52 1351.54 1089.09  958.59   12.87   30.79   49.29   16.43    5.72 1351.54
     36   7   FAGASA     .482E-02   77.00   97.20   11.64    0.00  234.29    0.00    0.20 3445.52 1187.86 1367.14  884.06   77.40   46.54   62.74   15.70    5.44 1187.86
     37   7   AUA        .616E-03   77.00  165.80    4.10    0.00  194.37    0.00    0.20 3445.52 1348.32 1096.56  956.17   17.50   31.90   52.39   16.38    5.70 1348.33
     38   7   FAGASA     .123E-02   77.00   97.20    6.52    0.00  233.49    0.00    0.20 3445.52 1251.56 1262.56  902.95   38.77   47.81   58.93   15.71    5.45 1251.56
     39   7   AUA        .790E-02   77.00  165.80    2.75    0.00  184.99    0.00    0.20 3445.52 1366.91 1036.27  973.18   16.10   19.44   51.37   16.53    5.75 1366.91
     40   7   FAGASA     .308E-03   72.00   97.20   21.18    0.00  146.61    0.00    0.20 3445.52  757.44 1731.99  951.62    0.86   17.45   10.06   33.42   21.64  757.44
     41   7   AUA        .336E-01   55.00  165.80    9.47    0.00    0.00    0.00    0.20 3445.52  485.29 1935.69  983.32    7.20    2.06   30.42    8.48    5.94  485.29
     42   7   FAGASA     .686E-01   70.00   97.20   14.72    0.00    0.00    0.00    0.20 3445.52  893.68 1620.58  917.18   40.51    1.65   43.13    7.44    5.21  893.68
     43   7   AUA        .205E-03   66.00  165.80    3.09    0.00    0.00    0.00    0.20 3445.52  856.58 1509.42 1026.93    0.56    1.47    7.27   10.53    7.37  856.58
     44   7   FAGASA     .135E-01   77.00   97.20   21.18    0.00    0.00    0.00    0.20 3445.52 1130.87 1386.22  925.96   19.13    1.37   46.71    8.71    6.10 1130.87
     45   7   FAGASA     .410E-03   91.00   97.20    7.57    0.00    0.00    0.00    0.20 3445.52 1971.52  679.69  793.81  204.07    1.63   49.78    0.00    0.00 1971.52
     46   8   AUA        .441E-02   91.00  165.80    2.71    0.00    0.00    0.00    0.20 3445.52 2278.53  200.69  930.98   80.81    1.24   46.24    0.00    0.00 2278.53
     47   8   AUA        .616E-03   91.00  165.80    3.23    0.00    0.00    0.00    0.20 3445.52 2221.78  340.57  880.96   74.74    1.43   46.16    0.00    0.00 2221.78
     48   8   AUA        .154E-02   77.00  165.80   11.66    0.00  200.37    0.00    0.20 3445.52 1280.75 1220.36  927.05   52.95   37.08   58.82   16.26    5.66 1280.75
     49   8   FAGASA     .133E-02   83.00   97.20   11.37    0.00  222.68    0.00    0.20 3445.52 1429.98 1149.83  865.30   78.72   47.13   62.01   15.70    5.44 1429.98
     50   8   AUA        .923E-03   59.00  165.80    2.44    0.00  137.10    0.00    0.20 3445.52  612.02 1659.83 1068.41    0.06    5.14    0.84   39.31   25.57  612.02
     51   8   FAGASA     .103E-03   72.00   97.20   12.43    0.00  146.44    0.00    0.20 3445.52  757.51 1731.24  951.51    0.37   17.47    4.79   33.44   21.65  757.51
     52   8   AUA        .103E-03   55.00  165.80    0.07    0.00    0.00    0.00    0.20 3445.52  515.72 1755.65 1036.85    0.00    0.01    0.03    5.71    4.00  515.04
     53   8   AUA        .513E-03   55.00  165.80    0.33    0.00    0.00    0.00    0.20 3445.52  515.37 1757.35 1036.65    0.22    0.04    3.28    5.72    4.00  515.36
     54   8   AUA        .686E-01   55.00  165.80    6.98    0.00    0.00    0.00    0.20 3445.52  492.89 1913.76  992.70    5.91    1.92   28.91    8.37    5.86  492.89
     55   8   FAGASA     .118E-01   70.00   97.20   10.38    0.00    0.00    0.00    0.20 3445.52  893.70 1619.23  917.12   23.07    1.67   41.50    7.46    5.22  893.70
     56   8   AUA        .103E-03   86.00  165.80    2.68    0.00    0.00    0.00    0.20 3445.52 1912.25  511.17  972.19   42.99    1.10   45.44    0.00    0.00 1912.25
     57   9   FAGASA     .513E-03   72.00   97.20   10.51    0.00  146.46    0.00    0.20 3445.52  757.55 1730.97  951.49    0.45   17.47    5.89   33.44   21.65  757.55
     58   9   AUA        .188E-01   55.00  165.80    4.10    0.00    0.00    0.00    0.20 3445.52  500.20 1884.68 1004.96    3.14    1.75   23.42    8.05    5.64  500.20
     59   9   FAGASA     .126E-01   70.00   97.20   10.91    0.00    0.00    0.00    0.20 3445.52  893.70 1619.61  917.12   24.47    1.67   41.72    7.45    5.22  893.70
     60   9   URBAN LA   .185E-02   77.00    1.50    1.31    0.00    0.00    0.00    0.20 3445.52 2326.25    0.00 1106.47    0.00    0.01    0.00    0.07    0.05 2326.25
     61   9   AUA        .923E-03   77.00  165.80    2.07    0.00    0.00    0.00    0.20 3445.52 1366.11  973.38 1028.72    3.49    0.54   25.96    7.61    5.33 1366.11
     62   9   URBAN LA   .205E-03   77.00    1.50    1.98    0.00    0.00    0.00    0.20 3445.52 2326.24    0.00 1106.46    0.00    0.01    0.00    0.07    0.05 2326.24
     63   9   AUA        .164E-02   77.00  165.80    3.19    0.00    0.00    0.00    0.20 3445.52 1347.27 1049.32 1002.78    5.07    1.58   29.54    8.48    5.94 1347.27
     64   9   URBAN LA   .616E-03   77.00    1.50    1.98    0.00    0.00    0.00    0.20 3445.52 2326.25    0.00 1106.47    0.00    0.01    0.00    0.07    0.05 2326.25



                AVE MONTHLY BASIN VALUES
                   SNOW                      WATER               SED
  MON     RAIN     FALL   SURF Q    LAT Q    YIELD       ET    YIELD      PET
          (MM)     (MM)     (MM)     (MM)     (MM)     (MM)   (T/HA)     (MM)
    1   482.70     0.00   132.18   243.84   383.18    92.74    10.13   144.57
    2   253.79     0.00    45.00   130.70   183.25    94.21     3.17   147.82
    3   198.40     0.00    21.45    85.45   112.50   103.95     0.06   138.79
    4   514.12     0.00   149.97   230.41   383.29    91.00     0.27   122.00
    5   208.30     0.00    36.12   113.90   155.23    70.92     0.08   133.45
    6   184.15     0.00    40.70    84.69   130.00    57.38     0.12   130.72
    7   302.85     0.00   116.25   109.80   228.68    62.23     0.43   127.76
    8   228.95     0.00    48.92   112.76   164.21    70.59     0.35   152.20
    9   118.50     0.00     8.59    52.72    63.52    60.28     0.15   138.39
   10   173.77     0.00    21.66    77.09    99.93    68.58     0.52   162.02
   11   347.37     0.00    87.89   164.51   253.17    80.08     3.37   144.67
   12   439.17     0.00   127.07   201.18   331.15    90.80     7.69   146.89

     AVE ANNUAL BASIN STRESS DAYS
               WATER STRESS DAYS =     1.53
               TEMPERATURE STRESS DAYS =     0.12
               NITROGEN STRESS DAYS =     7.91
               PHOSPHORUS STRESS DAYS =     0.03
               AERATION STRESS DAYS =     0.00
1
    SWAT Dec 23 2016    VER 2016/Rev 664                                            

    General Input/Output section (file.cio):                                        
    2/7/2020 21:40:12 QSWAT Workflow v1.5.2                                         
                                                                                    
         AVE ANNUAL BASIN VALUES

              PRECIP =   3445.5 MM
              SNOW FALL =    0.00 MM
              SNOW MELT =     0.00 MM
              SUBLIMATION =     0.00 MM
              SURFACE RUNOFF Q =   834.64 MM
              LATERAL SOIL Q = 1603.67 MM
              TILE Q =     0.00 MM
              GROUNDWATER (SHAL AQ) Q =    41.72 MM
              GROUNDWATER (DEEP AQ) Q =     3.34 MM
              REVAP (SHAL AQ => SOIL/PLANTS) =   31.96 MM
              DEEP AQ RECHARGE =     3.24 MM
              TOTAL AQ RECHARGE =   64.86 MM
              TOTAL WATER YLD =  2483.37 MM
              PERCOLATION OUT OF SOIL =   65.42 MM
              ET =    940.3 MM
              PET =   1685.5MM
              TRANSMISSION LOSSES =     0.00 MM
              SEPTIC INFLOW =       0.00 MM
              TOTAL SEDIMENT LOADING =     26.25 T/HA
              TILE FROM IMPOUNDED WATER =     0.000 (MM)
              EVAPORATION FROM IMPOUNDED WATER =     0.000 (MM)
              SEEPAGE INTO SOIL FROM IMPOUNDED WATER =    0.000 (MM)
              OVERFLOW FROM IMPOUNDED WATER =    0.000 (MM)
1
    SWAT Dec 23 2016    VER 2016/Rev 664                                            

    General Input/Output section (file.cio):                                        
    2/7/2020 21:40:12 QSWAT Workflow v1.5.2                                         
                                                                                    
              AVE ANNUAL BASIN VALUES


              NUTRIENTS
                   ORGANIC N =    39.493 (KG/HA)
                   ORGANIC P =     4.865 (KG/HA)
                   NO3 YIELD (SQ) =     0.232 (KG/HA)
                   NO3 YIELD (LAT) =    1.995 (KG/HA)
                   NO3 YIELD (TILE) =    0.000 (KG/HA)
                   SOLP YIELD (TILE) =    0.000(KG/HA)
                   SOLP YIELD (SURF INLET RISER) =    0.000 (KG/HA)
                   SOL P YIELD =    0.042 (KG/HA)
                   NO3 LEACHED =     1.245 (KG/HA)
                   P LEACHED =     0.029 (KG/HA)
                   N UPTAKE =    10.870 (KG/HA)
                   P UPTAKE =    2.293 (KG/HA)
                   NO3 YIELD (GWQ) =     0.008 (KG/HA)
                   ACTIVE TO SOLUTION P FLOW =         0.127 (KG/HA)
                   ACTIVE TO STABLE P FLOW =         0.463 (KG/HA)
                   N FERTILIZER APPLIED =     3.473 (KG/HA)
                   P FERTILIZER APPLIED =     0.000 (KG/HA)
                   N FIXATION =     0.000 (KG/HA)
                   DENITRIFICATION =     0.000 (KG/HA)
                   HUMUS MIN ON ACTIVE ORG N =    13.467 (KG/HA)
                   ACTIVE TO STABLE ORG N =   -11.515 (KG/HA)
                   HUMUS MIN ON ACTIVE ORG P =    2.298 (KG/HA)
                   MIN FROM FRESH ORG N =    2.049 (KG/HA)
                   MIN FROM FRESH ORG P =    0.463 (KG/HA)
                   NO3 IN RAINFALL =     0.000 (KG/HA)
                   INITIAL NO3 IN SOIL =      37.089 (KG/HA)
                   FINAL NO3 IN SOIL =         6.894 (KG/HA)
                   INITIAL ORG N IN SOIL =   13045.640 (KG/HA)
                   FINAL ORG N IN SOIL =     12149.784 (KG/HA)
                   INITIAL MIN P IN SOIL =    2014.960 (KG/HA)
                   FINAL MIN P IN SOIL =      1947.708 (KG/HA)
                   INITIAL ORG P IN SOIL =    1598.091 (KG/HA)
                   FINAL ORG P IN SOIL =    1480.287 (KG/HA)
                   NO3 IN FERT =     3.473 (KG/HA)
                   AMMONIA IN FERT =     0.000 (KG/HA)
                   ORG N IN FERT =     0.000 (KG/HA)
                   MINERAL P IN FERT =     0.000 (KG/HA)
                   ORG P IN FERT =     0.000 (KG/HA)
                   N REMOVED IN YIELD =     8.368 (KG/HA)
                   P REMOVED IN YIELD =     1.747 (KG/HA)
                   AMMONIA VOLATILIZATION =     0.000 (KG/HA)
                   AMMONIA NITRIFICATION =      0.000 (KG/HA)
                   NO3 EVAP-LAYER 2 TO 1 =    4.351

                   DIE-GRO P Q =           0.0 (No/M2)
                   DIE-GRO LP Q =           0.0 (No/M2)
                   DIE-GRO P SED =          0.0 (No/M2)
                   DIE-GRO LP SED =          0.0 (No/M2)
                   BACT P RUNOFF =          0.0 (No/M2)
                   BACT LP RUNOFF =          0.0 (No/M2)
                   BACT P SEDIMENT =          0.0 (No/M2)
                   BACT LP SEDIMENT =          0.0 (No/M2)
                   BACT P INCORP =          0.0 (No/M2)
                   BACT LP INCORP =          0.0 (No/M2)

                   NITRATE SEPTIC =         0.00 (kg/ha)
                   AMMONIA SEPTIC =         0.00 (kg/ha)
                   ORG N SEPTIC =         0.00 (kg/ha)
                   FRESH ORGN SEPTIC =         0.00 (kg/ha)
                   ORG P SEPTIC =         0.00 (kg/ha)
                   FRESH ORGP SEPTIC =         0.00 (kg/ha)
                   SOL P SEPTIC =         0.00 (kg/ha)
                   BOD SEPTIC =         0.00 (kg/ha)
