1
    SWAT Dec 23 2016    VER 2016/Rev 664                                                                 0/ 0/   0      0: 0: 0

    General Input/Output section (file.cio):                                        
    2/7/2020 21:40:57 QSWAT Workflow v1.5.2                                         
                                                                                    
         Number of years in run:   12
         Area of watershed:        1.675 km2
         Random number generator cycles: 0, use default numbers

         Initial random number seed: wet/dry day prob        748932582
         Initial random number seed: radiation              1948832765
         Initial random number seed: precipitation           857034417
         Initial random number seed: 0.5 hr rainfall          67377721
         Initial random number seed: wind speed              366304404
         Initial random number seed: irrigation             1094585182
         Initial random number seed: relative humidity      1767585417
         Initial random number seed: max temperature         608439319
         Initial random number seed: min temperature         592757081

         Precipitation data used in run:
          Multiple gages read for watershed
             Daily rainfall data used

         Temperature data used in run:
          Multiple gages read for watershed

         PET method used: Penman-Monteith

         Rainfall/Runoff/Routing Option:
          Daily rainfall data
          Runoff estimated with curve number method
          Daily stream routing
           Variable Storage routing method
           Channel dimensions remain constant
           Subbasin algae/CBOD loadings not modeled
           In-stream nutrient transformations modeled using QUAL2E equations

         Subbasin Input Summary:
          Sub Latitude  Elev(m) #HRUs Ponds Elevbnds Wetlnd
            1   -14.29   363.85     1                   
            2   -14.29   371.71     3                   
            3   -14.29   334.27     4                   
            4   -14.29   314.26     2                   
            5   -14.29   346.24     4                   
            6   -14.29   312.34     1                   
            7   -14.29   233.62     1                   
            8   -14.29   153.14     1                   
            9   -14.29   247.21     2                   
           10   -14.29   264.32     2                   
           11   -14.29   177.35     1                   
           12   -14.29   173.47     1                   
           13   -14.29   136.90    19                   

         HRU Input Summary Table 1:
          Sub   HRU   Area(ha) Slope SlpLgth(m) Ovrlnd_N CondII_CN TimeConc(hr) ESCO EPCO
            1      1      16.67 0.465       9.15    0.100     70.00        0.102 0.95 1.00
            2      2       0.01 0.000     121.95    0.100     70.00        3.952 0.95 1.00
            2      3       0.03 0.022      91.46    0.100     70.00        0.659 0.95 1.00
            2      4      37.34 0.462       9.15    0.100     70.00        0.120 0.95 1.00
            3      5       0.01 0.000     121.95    0.100     70.00        3.952 0.95 1.00
            3      6       0.01 0.028      91.46    0.100     70.00        0.613 0.95 1.00
            3      7      12.36 0.661       9.15    0.100     70.00        0.087 0.95 1.00
            3      8       2.82 1.000       9.15    0.100     77.00        0.060 0.95 1.00
            4      9       0.01 0.029      91.46    0.100     70.00        0.607 0.95 1.00
            4     10      10.35 0.523       9.15    0.100     70.00        0.094 0.95 1.00
            5     11       0.01 0.000     121.95    0.100     70.00        3.952 0.95 1.00
            5     12       0.01 0.014     121.95    0.100     70.00        0.897 0.95 1.00
            5     13      11.35 0.614       9.15    0.100     70.00        0.084 0.95 1.00
            5     14       4.23 1.000       9.15    0.100     77.00        0.062 0.95 1.00
            6     15      12.00 0.555       9.15    0.100     70.00        0.106 0.95 1.00
            7     16      11.50 0.652       9.15    0.100     70.00        0.089 0.95 1.00
            8     17       1.68 0.579       9.15    0.100     70.00        0.076 0.95 1.00
            9     18       0.02 0.001     121.95    0.100     70.00        1.981 0.95 1.00
            9     19       3.28 0.457       9.15    0.100     70.00        0.084 0.95 1.00
           10     20       0.01 0.000     121.95    0.100     70.00        3.952 0.95 1.00
           10     21       9.04 0.478       9.15    0.100     70.00        0.106 0.95 1.00
           11     22       2.25 0.636       9.15    0.100     70.00        0.078 0.95 1.00
           12     23       6.97 0.581       9.15    0.100     70.00        0.083 0.95 1.00
           13     24       0.04 0.000     121.95    0.100     70.00        3.952 0.95 1.00
           13     25       0.02 0.018     121.95    0.100     70.00        0.832 0.95 1.00
           13     26       0.22 0.165      18.29    0.100     70.00        0.138 0.95 1.00
           13     27       0.03 0.330       9.15    0.100     70.00        0.074 0.95 1.00
           13     28       0.07 0.002     121.95    0.100     70.00        1.609 0.95 1.00
           13     29       0.04 0.022      91.46    0.100     70.00        0.659 0.95 1.00
           13     30       0.22 0.113      60.98    0.100     70.00        0.317 0.95 1.00
           13     31       0.02 0.206      15.24    0.100     70.00        0.115 0.95 1.00
           13     32       0.07 0.257       9.15    0.100     59.00        0.079 0.95 1.00
           13     33       0.03 0.347       9.15    0.100     72.00        0.072 0.95 1.00
           13     34       0.01 0.004     121.95    0.100     55.00        1.307 0.95 1.00
           13     35       3.70 0.467       9.15    0.100     55.00        0.072 0.95 1.00
           13     36       0.02 0.000     121.95    0.100     70.00        3.952 0.95 1.00
           13     37       0.01 0.028      91.46    0.100     70.00        0.613 0.95 1.00
           13     38      20.91 0.799       9.15    0.100     70.00        0.084 0.95 1.00
           13     39       0.01 0.529       9.15    0.100     66.00        0.064 0.95 1.00
           13     40       0.01 0.029      91.46    0.140     86.00        0.743 0.95 1.00
           13     41       0.09 0.059      60.98    0.140     86.00        0.471 0.95 1.00
           13     42       0.01 0.134      24.39    0.140     91.00        0.212 0.95 1.00

         HRU CN Input Summary Table:
          Sub   HRU   Area(ha)  LULC      Soil    CN1    CN2    CN3  Wilting Point (mm H2O)  Field Capacity (mm H2O)  Saturation (mm H2O)
            1      1      16.67  FRSE  FAGASA     51.2   70.0   85.7                   132.2                     97.2                365.5
            2      2       0.01  FRSE  FAGASA     51.2   70.0   85.7                   132.2                     97.2                365.5
            2      3       0.03  FRSE  FAGASA     51.2   70.0   85.7                   132.2                     97.2                365.5
            2      4      37.34  FRSE  FAGASA     51.2   70.0   85.7                   132.2                     97.2                365.5
            3      5       0.01  FRSE  FAGASA     51.2   70.0   85.7                   132.2                     97.2                365.5
            3      6       0.01  FRSE  FAGASA     51.2   70.0   85.7                   132.2                     97.2                365.5
            3      7      12.36  FRSE  FAGASA     51.2   70.0   85.7                   132.2                     97.2                365.5
            3      8       2.82  FRSD  FAGASA     59.3   77.0   89.9                   132.2                     97.2                365.5
            4      9       0.01  FRSE  FAGASA     51.2   70.0   85.7                   132.2                     97.2                365.5
            4     10      10.35  FRSE  FAGASA     51.2   70.0   85.7                   132.2                     97.2                365.5
            5     11       0.01  FRSE  FAGASA     51.2   70.0   85.7                   132.2                     97.2                365.5
            5     12       0.01  FRSE  FAGASA     51.2   70.0   85.7                   132.2                     97.2                365.5
            5     13      11.35  FRSE  FAGASA     51.2   70.0   85.7                   132.2                     97.2                365.5
            5     14       4.23  FRSD  FAGASA     59.3   77.0   89.9                   132.2                     97.2                365.5
            6     15      12.00  FRSE  FAGASA     51.2   70.0   85.7                   132.2                     97.2                365.5
            7     16      11.50  FRSE  FAGASA     51.2   70.0   85.7                   132.2                     97.2                365.5
            8     17       1.68  FRSE  FAGASA     51.2   70.0   85.7                   132.2                     97.2                365.5
            9     18       0.02  FRSE  FAGASA     51.2   70.0   85.7                   132.2                     97.2                365.5
            9     19       3.28  FRSE  FAGASA     51.2   70.0   85.7                   132.2                     97.2                365.5
           10     20       0.01  FRSE  FAGASA     51.2   70.0   85.7                   132.2                     97.2                365.5
           10     21       9.04  FRSE  FAGASA     51.2   70.0   85.7                   132.2                     97.2                365.5
           11     22       2.25  FRSE  FAGASA     51.2   70.0   85.7                   132.2                     97.2                365.5
           12     23       6.97  FRSE  FAGASA     51.2   70.0   85.7                   132.2                     97.2                365.5
           13     24       0.04  FRSE  AUA        51.2   70.0   85.7                   211.7                    165.8                763.4
           13     25       0.02  FRSE  AUA        51.2   70.0   85.7                   211.7                    165.8                763.4
           13     26       0.22  FRSE  AUA        51.2   70.0   85.7                   211.7                    165.8                763.4
           13     27       0.03  FRSE  FAGASA     51.2   70.0   85.7                   132.2                     97.2                365.5
           13     28       0.07  FRSE  AUA        51.2   70.0   85.7                   211.7                    165.8                763.4
           13     29       0.04  FRSE  AUA        51.2   70.0   85.7                   211.7                    165.8                763.4
           13     30       0.22  FRSE  AUA        51.2   70.0   85.7                   211.7                    165.8                763.4
           13     31       0.02  FRSE  FAGASA     51.2   70.0   85.7                   132.2                     97.2                365.5
           13     32       0.07  SWCH  AUA        39.4   59.0   77.7                   211.7                    165.8                763.4
           13     33       0.03  SWCH  FAGASA     53.4   72.0   86.9                   132.2                     97.2                365.5
           13     34       0.01  FRSE  AUA        35.3   55.0   74.5                   211.7                    165.8                763.4
           13     35       3.70  FRSE  AUA        35.3   55.0   74.5                   211.7                    165.8                763.4
           13     36       0.02  FRSE  FAGASA     51.2   70.0   85.7                   132.2                     97.2                365.5
           13     37       0.01  FRSE  FAGASA     51.2   70.0   85.7                   132.2                     97.2                365.5
           13     38      20.91  FRSE  FAGASA     51.2   70.0   85.7                   132.2                     97.2                365.5
           13     39       0.01  FRSD  AUA        46.8   66.0   83.0                   211.7                    165.8                763.4
           13     40       0.01  BARR  AUA        71.4   86.0   94.5                   211.7                    165.8                763.4
           13     41       0.09  BARR  AUA        71.4   86.0   94.5                   211.7                    165.8                763.4
           13     42       0.01  BARR  FAGASA     79.8   91.0   96.7                   132.2                     97.2                365.5

         HRU Input Summary Table 2:
          Sub   HRU   Area(ha)         SoilName Hydgrp MaxRtDpth(mm) Albedo USLE_K USLE_P USLE_LS ProfileAWC(mm) IniSoilH2O(mm)
            1      1      16.67 FAGASA             C           840.00   0.16   0.10   1.00    8.01     97.200         71.232
            2      2       0.01 FAGASA             C           840.00   0.16   0.10   1.00    0.07     97.200         71.232
            2      3       0.03 FAGASA             C           840.00   0.16   0.10   1.00    0.31     97.200         71.232
            2      4      37.34 FAGASA             C           840.00   0.16   0.10   1.00    7.94     97.200         71.232
            3      5       0.01 FAGASA             C           840.00   0.16   0.10   1.00    0.07     97.200         71.232
            3      6       0.01 FAGASA             C           840.00   0.16   0.10   1.00    0.42     97.200         71.232
            3      7      12.36 FAGASA             C           840.00   0.16   0.10   1.00   13.22     97.200         71.232
            3      8       2.82 FAGASA             C           840.00   0.16   0.10   1.00   21.18     97.200         71.232
            4      9       0.01 FAGASA             C           840.00   0.16   0.10   1.00    0.44     97.200         71.232
            4     10      10.35 FAGASA             C           840.00   0.16   0.10   1.00    9.55     97.200         71.232
            5     11       0.01 FAGASA             C           840.00   0.16   0.10   1.00    0.07     97.200         71.232
            5     12       0.01 FAGASA             C           840.00   0.16   0.10   1.00    0.21     97.200         71.232
            5     13      11.35 FAGASA             C           840.00   0.16   0.10   1.00   11.98     97.200         71.232
            5     14       4.23 FAGASA             C           840.00   0.16   0.10   1.00   21.18     97.200         71.232
            6     15      12.00 FAGASA             C           840.00   0.16   0.10   1.00   10.41     97.200         71.232
            7     16      11.50 FAGASA             C           840.00   0.16   0.10   1.00   12.99     97.200         71.232
            8     17       1.68 FAGASA             C           840.00   0.16   0.10   1.00   11.05     97.200         71.232
            9     18       0.02 FAGASA             C           840.00   0.16   0.10   1.00    0.07     97.200         71.232
            9     19       3.28 FAGASA             C           840.00   0.16   0.10   1.00    7.80     97.200         71.232
           10     20       0.01 FAGASA             C           840.00   0.16   0.10   1.00    0.07     97.200         71.232
           10     21       9.04 FAGASA             C           840.00   0.16   0.10   1.00    8.36     97.200         71.232
           11     22       2.25 FAGASA             C           840.00   0.16   0.10   1.00   12.57     97.200         71.232
           12     23       6.97 FAGASA             C           840.00   0.16   0.10   1.00   11.10     97.200         71.232
           13     24       0.04 AUA                B          1520.00   0.16   0.17   1.00    0.07    165.800        121.506
           13     25       0.02 AUA                B          1520.00   0.16   0.17   1.00    0.27    165.800        121.506
           13     26       0.22 AUA                B          1520.00   0.16   0.17   1.00    2.27    165.800        121.506
           13     27       0.03 FAGASA             C           840.00   0.16   0.10   1.00    4.66     97.200         71.232
           13     28       0.07 AUA                B          1520.00   0.16   0.17   1.00    0.08    165.800        121.506
           13     29       0.04 AUA                B          1520.00   0.16   0.17   1.00    0.31    165.800        121.506
           13     30       0.22 AUA                B          1520.00   0.16   0.17   1.00    2.55    165.800        121.506
           13     31       0.02 FAGASA             C           840.00   0.16   0.10   1.00    2.92     97.200         71.232
           13     32       0.07 AUA                B          1520.00   0.16   0.17   1.00    3.09    165.800        121.506
           13     33       0.03 FAGASA             C           840.00   0.16   0.10   1.00    5.06     97.200         71.232
           13     34       0.01 AUA                B          1520.00   0.16   0.17   1.00    0.10    165.800        121.506
           13     35       3.70 AUA                B          1520.00   0.16   0.17   1.00    8.07    165.800        121.506
           13     36       0.02 FAGASA             C           840.00   0.16   0.10   1.00    0.07     97.200         71.232
           13     37       0.01 FAGASA             C           840.00   0.16   0.10   1.00    0.42     97.200         71.232
           13     38      20.91 FAGASA             C           840.00   0.16   0.10   1.00   16.71     97.200         71.232
           13     39       0.01 AUA                B          1520.00   0.16   0.17   1.00    9.71    165.800        121.506
           13     40       0.01 AUA                B           100.00   0.16   0.17   1.00    0.44    165.800        121.506
           13     41       0.09 AUA                B           100.00   0.16   0.17   1.00    0.96    165.800        121.506
           13     42       0.01 FAGASA             C           100.00   0.16   0.10   1.00    1.93     97.200         71.232

         HRU Input Summary Table 3:
          Sub   HRU   Area(ha) Urban Irrig DrainTiles Pothole Pstcide Biomix Septic
            1      1      16.67                                          0.20 x
            2      2       0.01                                          0.20 x
            2      3       0.03                                          0.20 x
            2      4      37.34                                          0.20 x
            3      5       0.01                                          0.20 x
            3      6       0.01                                          0.20 x
            3      7      12.36                                          0.20 x
            3      8       2.82                                          0.20 x
            4      9       0.01                                          0.20 x
            4     10      10.35                                          0.20 x
            5     11       0.01                                          0.20 x
            5     12       0.01                                          0.20 x
            5     13      11.35                                          0.20 x
            5     14       4.23                                          0.20 x
            6     15      12.00                                          0.20 x
            7     16      11.50                                          0.20 x
            8     17       1.68                                          0.20 x
            9     18       0.02                                          0.20 x
            9     19       3.28                                          0.20 x
           10     20       0.01                                          0.20 x
           10     21       9.04                                          0.20 x
           11     22       2.25                                          0.20 x
           12     23       6.97                                          0.20 x
           13     24       0.04                                          0.20 x
           13     25       0.02                                          0.20 x
           13     26       0.22                                          0.20 x
           13     27       0.03                                          0.20 x
           13     28       0.07                                          0.20 x
           13     29       0.04                                          0.20 x
           13     30       0.22                                          0.20 x
           13     31       0.02                                          0.20 x
           13     32       0.07                                          0.20 x
           13     33       0.03                                          0.20 x
           13     34       0.01                                          0.20 x
           13     35       3.70                                          0.20 x
           13     36       0.02                                          0.20 x
           13     37       0.01                                          0.20 x
           13     38      20.91                                          0.20 x
           13     39       0.01                                          0.20 x
           13     40       0.01                                          0.20 x
           13     41       0.09                                          0.20 x
           13     42       0.01                                          0.20 x

         HRU Input Summary Table 4 (Groundwater):
          Sub   HRU   Area(ha) GWdelay(days), GWalpha(days) GWQmin(mm) GWrevap Revapmin(mm) Deepfr NO3(ppm) SolP(ppm)
            1      1      16.67        31.000         0.048   1000.000   0.020      750.000  0.050    0.000     0.000
            2      2       0.01        31.000         0.048   1000.000   0.020      750.000  0.050    0.000     0.000
            2      3       0.03        31.000         0.048   1000.000   0.020      750.000  0.050    0.000     0.000
            2      4      37.34        31.000         0.048   1000.000   0.020      750.000  0.050    0.000     0.000
            3      5       0.01        31.000         0.048   1000.000   0.020      750.000  0.050    0.000     0.000
            3      6       0.01        31.000         0.048   1000.000   0.020      750.000  0.050    0.000     0.000
            3      7      12.36        31.000         0.048   1000.000   0.020      750.000  0.050    0.000     0.000
            3      8       2.82        31.000         0.048   1000.000   0.020      750.000  0.050    0.000     0.000
            4      9       0.01        31.000         0.048   1000.000   0.020      750.000  0.050    0.000     0.000
            4     10      10.35        31.000         0.048   1000.000   0.020      750.000  0.050    0.000     0.000
            5     11       0.01        31.000         0.048   1000.000   0.020      750.000  0.050    0.000     0.000
            5     12       0.01        31.000         0.048   1000.000   0.020      750.000  0.050    0.000     0.000
            5     13      11.35        31.000         0.048   1000.000   0.020      750.000  0.050    0.000     0.000
            5     14       4.23        31.000         0.048   1000.000   0.020      750.000  0.050    0.000     0.000
            6     15      12.00        31.000         0.048   1000.000   0.020      750.000  0.050    0.000     0.000
            7     16      11.50        31.000         0.048   1000.000   0.020      750.000  0.050    0.000     0.000
            8     17       1.68        31.000         0.048   1000.000   0.020      750.000  0.050    0.000     0.000
            9     18       0.02        31.000         0.048   1000.000   0.020      750.000  0.050    0.000     0.000
            9     19       3.28        31.000         0.048   1000.000   0.020      750.000  0.050    0.000     0.000
           10     20       0.01        31.000         0.048   1000.000   0.020      750.000  0.050    0.000     0.000
           10     21       9.04        31.000         0.048   1000.000   0.020      750.000  0.050    0.000     0.000
           11     22       2.25        31.000         0.048   1000.000   0.020      750.000  0.050    0.000     0.000
           12     23       6.97        31.000         0.048   1000.000   0.020      750.000  0.050    0.000     0.000
           13     24       0.04        31.000         0.048   1000.000   0.020      750.000  0.050    0.000     0.000
           13     25       0.02        31.000         0.048   1000.000   0.020      750.000  0.050    0.000     0.000
           13     26       0.22        31.000         0.048   1000.000   0.020      750.000  0.050    0.000     0.000
           13     27       0.03        31.000         0.048   1000.000   0.020      750.000  0.050    0.000     0.000
           13     28       0.07        31.000         0.048   1000.000   0.020      750.000  0.050    0.000     0.000
           13     29       0.04        31.000         0.048   1000.000   0.020      750.000  0.050    0.000     0.000
           13     30       0.22        31.000         0.048   1000.000   0.020      750.000  0.050    0.000     0.000
           13     31       0.02        31.000         0.048   1000.000   0.020      750.000  0.050    0.000     0.000
           13     32       0.07        31.000         0.048   1000.000   0.020      750.000  0.050    0.000     0.000
           13     33       0.03        31.000         0.048   1000.000   0.020      750.000  0.050    0.000     0.000
           13     34       0.01        31.000         0.048   1000.000   0.020      750.000  0.050    0.000     0.000
           13     35       3.70        31.000         0.048   1000.000   0.020      750.000  0.050    0.000     0.000
           13     36       0.02        31.000         0.048   1000.000   0.020      750.000  0.050    0.000     0.000
           13     37       0.01        31.000         0.048   1000.000   0.020      750.000  0.050    0.000     0.000
           13     38      20.91        31.000         0.048   1000.000   0.020      750.000  0.050    0.000     0.000
           13     39       0.01        31.000         0.048   1000.000   0.020      750.000  0.050    0.000     0.000
           13     40       0.01        31.000         0.048   1000.000   0.020      750.000  0.050    0.000     0.000
           13     41       0.09        31.000         0.048   1000.000   0.020      750.000  0.050    0.000     0.000
           13     42       0.01        31.000         0.048   1000.000   0.020      750.000  0.050    0.000     0.000

         Tributary/Main Channel Characteristics
              |--------------Tributary--------------------|---------------------Main---------------------------|
          Sub  Length(km) Slope Width(m) Cond(mm/hr)     N Length(km) Slope Width(m) Depth(m) Cond(mm/hr)     N
            1        0.72 0.315     0.44      0.0000 0.014       0.14 0.253     0.44     0.06      0.0000 0.014
            2        1.09 0.238     0.71      0.0000 0.014       0.59 0.172     0.71     0.09      0.0000 0.014
            3        0.77 0.446     0.42      0.0000 0.014       0.28 0.336     0.42     0.06      0.0000 0.014
            4        0.64 0.397     0.33      0.0000 0.014       0.03 0.098     0.33     0.05      0.0000 0.014
            5        0.79 0.606     0.42      0.0000 0.014       0.06 0.253     0.42     0.06      0.0000 0.014
            6        0.89 0.359     0.36      0.0000 0.014       0.27 0.307     0.36     0.06      0.0000 0.014
            7        0.65 0.441     0.35      0.0000 0.014       0.05 0.299     0.35     0.05      0.0000 0.014
            8        0.22 0.303     0.11      0.0000 0.014       0.13 0.164     0.66     0.08      0.0000 0.014
            9        0.31 0.381     0.17      0.0000 0.014       0.16 0.260     0.92     0.10      0.0000 0.014
           10        0.80 0.342     0.31      0.0000 0.014       0.25 0.262     1.10     0.12      0.0000 0.014
           11        0.33 0.458     0.13      0.0000 0.014       0.07 0.172     1.22     0.12      0.0000 0.014
           12        0.47 0.537     0.26      0.0000 0.014       0.20 0.216     1.51     0.14      0.0000 0.014
           13        0.72 0.334     0.57      0.0000 0.014       0.47 0.096     1.76     0.16      0.0000 0.014
