1
    SWAT Dec 23 2016    VER 2016/Rev 664                                                                 0/ 0/   0      0: 0: 0

    General Input/Output section (file.cio):                                        
    2/7/2020 21:40:57 QSWAT Workflow v1.5.2                                         
                                                                                    


       SUB      GIS  MON   AREAkm2  PRECIPmm SNOMELTmm     PETmm      ETmm      SWmm    PERCmm    SURQmm    GW_Qmm    WYLDmm  SYLDt/ha ORGNkg/ha ORGPkg/haNSURQkg/ha SOLPkg/ha SEDPkg/ha LAT Q(mm)LATNO3kg/hGWNO3kg/haCHOLAmic/LCBODU mg/L DOXQ mg/L TNO3kg/ha   QTILEmm TVAPkg/ha
BIGSUB   1        0    1.16673E+00   576.600     0.000   117.421    87.656    96.092    11.040   162.742     0.000   458.717    11.565    25.538     3.120     0.005     0.009     2.502   295.843     0.427     0.000 .00000E+00 0.000E+00 0.000E+00 0.000E+00 0.000E+00 0.000E+00
BIGSUB   2        0    1.37378E+00   576.600     0.000   117.424    87.676    96.092    11.591   162.798     0.182   458.386    12.601    26.116     3.190     0.005     0.009     2.561   295.262     0.426     0.000 .00000E+00 0.000E+00 0.000E+00 0.000E+00 0.000E+00 0.000E+00
BIGSUB   3        0    1.15206E+00   576.600     0.000   117.408    86.498    96.104     6.513   173.357     0.224   464.085    14.985    24.181     2.956     0.011     0.015     2.383   290.442     0.408     0.000 .00000E+00 0.000E+00 0.000E+00 0.000E+00 0.000E+00 0.000E+00
BIGSUB   4        0    1.10363E+00   576.600     0.000   117.400    87.368    96.090     7.966   161.744     0.162   461.636    12.945    26.705     3.262     0.005     0.009     2.619   299.651     0.412     0.000 .00000E+00 0.000E+00 0.000E+00 0.000E+00 0.000E+00 0.000E+00
BIGSUB   5        0    1.15596E+00   576.600     0.000   117.413    86.098    96.110     6.361   178.720     0.220   464.699    12.070    21.226     2.597     0.014     0.018     2.092   285.700     0.403     0.000 .00000E+00 0.000E+00 0.000E+00 0.000E+00 0.000E+00 0.000E+00
BIGSUB   6        0    1.12004E+00   576.600     0.000   117.399    87.364    96.090     7.206   161.721     0.000   462.187    14.377    27.500     3.359     0.005     0.009     2.700   300.399     0.415     0.000 .00000E+00 0.000E+00 0.000E+00 0.000E+00 0.000E+00 0.000E+00
BIGSUB   7        0    1.11502E+00   576.600     0.000   117.366    87.358    96.088     6.720   161.729     0.000   462.658    17.874    29.137     3.558     0.005     0.008     2.868   300.867     0.418     0.000 .00000E+00 0.000E+00 0.000E+00 0.000E+00 0.000E+00 0.000E+00
BIGSUB   8        0    1.16827E-01   576.600     0.000   117.333    87.350    96.085     6.999   161.737     0.000   462.414    12.073    26.238     3.205     0.005     0.009     2.571   300.613     0.419     0.000 .00000E+00 0.000E+00 0.000E+00 0.000E+00 0.000E+00 0.000E+00
BIGSUB   9        0    1.33038E-01   576.600     0.000   117.372    87.705    96.088    13.545   162.859     1.044   457.437     9.231    23.886     2.918     0.005     0.010     2.333   293.349     0.427     0.000 .00000E+00 0.000E+00 0.000E+00 0.000E+00 0.000E+00 0.000E+00
BIGSUB  10        0    1.90496E-01   576.600     0.000   117.379    87.577    96.089    10.493   162.473     0.191   459.392    11.168    25.352     3.097     0.005     0.009     2.482   296.605     0.423     0.000 .00000E+00 0.000E+00 0.000E+00 0.000E+00 0.000E+00 0.000E+00
BIGSUB  11        0    1.22470E-01   576.600     0.000   117.343    87.353    96.086     6.780   161.734     0.000   462.614    14.218    27.412     3.348     0.005     0.009     2.691   300.817     0.419     0.000 .00000E+00 0.000E+00 0.000E+00 0.000E+00 0.000E+00 0.000E+00
BIGSUB  12        0    1.69667E-01   576.600     0.000   117.341    87.352    96.086     6.990   161.735     0.000   462.418    14.386    27.499     3.359     0.005     0.009     2.700   300.618     0.418     0.000 .00000E+00 0.000E+00 0.000E+00 0.000E+00 0.000E+00 0.000E+00
BIGSUB  13        0    1.25538E+00   576.600     0.000   117.326    87.806   108.187    19.133   148.927     6.767   456.944    20.695    28.210     3.444     0.005     0.008     2.773   300.932     0.420     0.002 .00000E+00 0.000E+00 0.000E+00 0.000E+00 0.000E+00 0.000E+00
BIGSUB   1        0    2.16673E+00   144.700     0.000   106.954    68.615    47.493     3.828    42.249     0.000   130.850     5.806     6.811     0.832     0.000     0.001     0.669    88.424     0.121     0.000 .00000E+00 0.000E+00 0.000E+00 0.000E+00 0.000E+00 0.000E+00
BIGSUB   2        0    2.37378E+00   144.700     0.000   106.961    68.611    47.498     3.974    42.254     0.199   130.900     6.321     6.844     0.836     0.000     0.001     0.673    88.260     0.121     0.000 .00000E+00 0.000E+00 0.000E+00 0.000E+00 0.000E+00 0.000E+00
BIGSUB   3        0    2.15206E+00   144.700     0.000   106.925    66.358    49.623     2.459    44.933     0.245   132.324     7.572     5.918     0.724     0.001     0.003     0.586    87.055     0.117     0.000 .00000E+00 0.000E+00 0.000E+00 0.000E+00 0.000E+00 0.000E+00
BIGSUB   4        0    2.10363E+00   144.700     0.000   106.906    68.576    47.526     2.938    42.251     0.177   131.976     6.534     7.020     0.857     0.000     0.001     0.690    89.434     0.120     0.000 .00000E+00 0.000E+00 0.000E+00 0.000E+00 0.000E+00 0.000E+00
BIGSUB   5        0    2.15596E+00   144.700     0.000   106.937    65.340    50.587     2.435    46.164     0.240   132.226     6.105     5.387     0.660     0.001     0.003     0.534    85.733     0.115     0.000 .00000E+00 0.000E+00 0.000E+00 0.000E+00 0.000E+00 0.000E+00
BIGSUB   6        0    2.12004E+00   144.700     0.000   106.904    68.582    47.519     2.699    42.250     0.000   132.055     7.255     7.068     0.863     0.000     0.001     0.696    89.704     0.121     0.000 .00000E+00 0.000E+00 0.000E+00 0.000E+00 0.000E+00 0.000E+00
BIGSUB   7        0    2.11502E+00   144.700     0.000   106.829    68.532    47.559     2.517    42.252     0.000   132.264     9.022     7.095     0.866     0.000     0.001     0.701    89.918     0.123     0.000 .00000E+00 0.000E+00 0.000E+00 0.000E+00 0.000E+00 0.000E+00
BIGSUB   8        0    2.16827E-01   144.700     0.000   106.752    68.481    47.600     2.622    42.254     0.000   132.156     6.096     6.997     0.855     0.000     0.001     0.687    89.805     0.122     0.000 .00000E+00 0.000E+00 0.000E+00 0.000E+00 0.000E+00 0.000E+00
BIGSUB   9        0    2.33038E-01   144.700     0.000   106.842    68.490    47.603     4.483    42.290     1.139   131.357     4.631     6.611     0.808     0.000     0.002     0.647    87.696     0.121     0.000 .00000E+00 0.000E+00 0.000E+00 0.000E+00 0.000E+00 0.000E+00
BIGSUB  10        0    2.90496E-01   144.700     0.000   106.859    68.542    47.553     3.664    42.269     0.208   131.260     5.615     6.819     0.833     0.000     0.002     0.669    88.618     0.121     0.000 .00000E+00 0.000E+00 0.000E+00 0.000E+00 0.000E+00 0.000E+00
BIGSUB  11        0    2.22470E-01   144.700     0.000   106.775    68.496    47.587     2.540    42.253     0.000   132.244     7.178     7.064     0.863     0.000     0.001     0.695    89.896     0.123     0.000 .00000E+00 0.000E+00 0.000E+00 0.000E+00 0.000E+00 0.000E+00
BIGSUB  12        0    2.69667E-01   144.700     0.000   106.772    68.494    47.589     2.618    42.254     0.000   132.157     7.263     7.068     0.863     0.000     0.001     0.696    89.807     0.122     0.000 .00000E+00 0.000E+00 0.000E+00 0.000E+00 0.000E+00 0.000E+00
BIGSUB  13        0    2.25538E+00   144.700     0.000   106.737    68.670    59.505     5.781    39.220     7.906   137.410    10.472     6.532     0.797     0.000     0.001     0.643    89.915     0.121     0.003 .00000E+00 0.000E+00 0.000E+00 0.000E+00 0.000E+00 0.000E+00
BIGSUB   1        0    3.16673E+00    93.800     0.000   115.566    83.723    18.603     0.000     0.000     0.000    39.161     0.000     0.000     0.000     0.000     0.000     0.000    38.951     0.000     0.000 .00000E+00 0.000E+00 0.000E+00 0.000E+00 0.000E+00 0.000E+00
BIGSUB   2        0    3.37378E+00    93.800     0.000   115.575    83.751    18.708     0.000     0.000     0.152    39.198     0.000     0.000     0.000     0.000     0.000     0.000    38.823     0.000     0.000 .00000E+00 0.000E+00 0.000E+00 0.000E+00 0.000E+00 0.000E+00
BIGSUB   3        0    3.15206E+00    93.800     0.000   115.532    83.062    20.064     0.000     0.037     0.188    40.582     0.000     0.000     0.000     0.000     0.000     0.000    40.243     0.000     0.000 .00000E+00 0.000E+00 0.000E+00 0.000E+00 0.000E+00 0.000E+00
BIGSUB   4        0    3.10363E+00    93.800     0.000   115.508    83.268    17.751     0.000     0.000     0.136    40.567     0.000     0.000     0.000     0.000     0.000     0.000    40.290     0.000     0.000 .00000E+00 0.000E+00 0.000E+00 0.000E+00 0.000E+00 0.000E+00
BIGSUB   5        0    3.15596E+00    93.800     0.000   115.546    82.971    21.116     0.000     0.054     0.184    40.579     0.000     0.000     0.000     0.000     0.000     0.000    40.229     0.001     0.000 .00000E+00 0.000E+00 0.000E+00 0.000E+00 0.000E+00 0.000E+00
BIGSUB   6        0    3.12004E+00    93.800     0.000   115.506    83.270    17.702     0.000     0.000     0.000    40.455     0.000     0.000     0.000     0.000     0.000     0.000    40.330     0.000     0.000 .00000E+00 0.000E+00 0.000E+00 0.000E+00 0.000E+00 0.000E+00
BIGSUB   7        0    3.11502E+00    93.800     0.000   115.414    83.242    17.759     0.000     0.000     0.000    40.459     0.000     0.000     0.000     0.000     0.000     0.000    40.341     0.000     0.000 .00000E+00 0.000E+00 0.000E+00 0.000E+00 0.000E+00 0.000E+00
BIGSUB   8        0    3.16827E-01    93.800     0.000   115.320    83.219    17.811     0.000     0.000     0.000    40.476     0.000     0.000     0.000     0.000     0.000     0.000    40.354     0.000     0.000 .00000E+00 0.000E+00 0.000E+00 0.000E+00 0.000E+00 0.000E+00
BIGSUB   9        0    3.33038E-01    93.800     0.000   115.430    83.750    19.139     0.000     0.000     0.873    39.642     0.000     0.000     0.000     0.000     0.000     0.000    38.498     0.000     0.000 .00000E+00 0.000E+00 0.000E+00 0.000E+00 0.000E+00 0.000E+00
BIGSUB  10        0    3.90496E-01    93.800     0.000   115.450    83.564    18.492     0.000     0.000     0.160    39.638     0.000     0.000     0.000     0.000     0.000     0.000    39.280     0.000     0.000 .00000E+00 0.000E+00 0.000E+00 0.000E+00 0.000E+00 0.000E+00
BIGSUB  11        0    3.22470E-01    93.800     0.000   115.349    83.225    17.796     0.000     0.000     0.000    40.468     0.000     0.000     0.000     0.000     0.000     0.000    40.350     0.000     0.000 .00000E+00 0.000E+00 0.000E+00 0.000E+00 0.000E+00 0.000E+00
BIGSUB  12        0    3.69667E-01    93.800     0.000   115.344    83.224    17.798     0.000     0.000     0.000    40.472     0.000     0.000     0.000     0.000     0.000     0.000    40.351     0.000     0.000 .00000E+00 0.000E+00 0.000E+00 0.000E+00 0.000E+00 0.000E+00
BIGSUB  13        0    3.25538E+00    93.800     0.000   115.301    84.017    30.953     0.002     0.106     5.630    44.355     0.001     0.003     0.000     0.000     0.000     0.000    38.207     0.009     0.001 .00000E+00 0.000E+00 0.000E+00 0.000E+00 0.000E+00 0.000E+00
BIGSUB   1        0    4.16673E+00   238.900     0.000   112.419    57.130    47.592     0.000    29.266     0.000   137.753     0.016     0.026     0.003     0.001     0.001     0.002   108.313     0.028     0.000 .00000E+00 0.000E+00 0.000E+00 0.000E+00 0.000E+00 0.000E+00
BIGSUB   2        0    4.37378E+00   238.900     0.000   112.421    57.236    47.783     0.061    29.385     0.053   137.590     0.018     0.027     0.003     0.001     0.001     0.002   107.966     0.028     0.000 .00000E+00 0.000E+00 0.000E+00 0.000E+00 0.000E+00 0.000E+00
BIGSUB   3        0    4.15206E+00   238.900     0.000   112.413    58.457    44.828     0.075    31.843     0.065   140.925     0.026     0.046     0.006     0.001     0.001     0.005   108.919     0.022     0.000 .00000E+00 0.000E+00 0.000E+00 0.000E+00 0.000E+00 0.000E+00
BIGSUB   4        0    4.10363E+00   238.900     0.000   112.408    55.842    45.394     0.054    28.018     0.047   140.098     0.017     0.025     0.003     0.001     0.001     0.002   111.914     0.027     0.000 .00000E+00 0.000E+00 0.000E+00 0.000E+00 0.000E+00 0.000E+00
BIGSUB   5        0    4.15596E+00   238.900     0.000   112.415    59.654    44.570     0.074    33.601     0.065   141.313     0.026     0.057     0.007     0.001     0.002     0.006   107.553     0.020     0.000 .00000E+00 0.000E+00 0.000E+00 0.000E+00 0.000E+00 0.000E+00
BIGSUB   6        0    4.12004E+00   238.900     0.000   112.408    55.819    45.317     0.000    27.971     0.000   140.120     0.018     0.026     0.003     0.001     0.001     0.002   112.043     0.027     0.000 .00000E+00 0.000E+00 0.000E+00 0.000E+00 0.000E+00 0.000E+00
BIGSUB   7        0    4.11502E+00   238.900     0.000   112.389    55.857    45.329     0.000    27.982     0.000   140.120     0.023     0.026     0.003     0.001     0.000     0.002   112.039     0.027     0.000 .00000E+00 0.000E+00 0.000E+00 0.000E+00 0.000E+00 0.000E+00
BIGSUB   8        0    4.16827E-01   238.900     0.000   112.371    55.889    45.342     0.000    27.993     0.000   140.131     0.015     0.025     0.003     0.001     0.001     0.002   112.035     0.027     0.000 .00000E+00 0.000E+00 0.000E+00 0.000E+00 0.000E+00 0.000E+00
BIGSUB   9        0    4.33038E-01   238.900     0.000   112.393    57.545    48.276     0.354    29.699     0.307   137.253     0.013     0.025     0.003     0.001     0.001     0.002   107.024     0.028     0.000 .00000E+00 0.000E+00 0.000E+00 0.000E+00 0.000E+00 0.000E+00
BIGSUB  10        0    4.90496E-01   238.900     0.000   112.397    56.845    47.070     0.065    28.984     0.056   138.355     0.015     0.025     0.003     0.001     0.001     0.002   109.150     0.028     0.000 .00000E+00 0.000E+00 0.000E+00 0.000E+00 0.000E+00 0.000E+00
BIGSUB  11        0    4.22470E-01   238.900     0.000   112.376    55.880    45.338     0.000    27.989     0.000   140.126     0.018     0.025     0.003     0.001     0.001     0.002   112.036     0.027     0.000 .00000E+00 0.000E+00 0.000E+00 0.000E+00 0.000E+00 0.000E+00
BIGSUB  12        0    4.69667E-01   238.900     0.000   112.376    55.881    45.338     0.000    27.990     0.000   140.129     0.018     0.026     0.003     0.001     0.001     0.002   112.036     0.027     0.000 .00000E+00 0.000E+00 0.000E+00 0.000E+00 0.000E+00 0.000E+00
BIGSUB  13        0    4.25538E+00   238.900     0.000   112.367    61.272    58.037     0.463    27.694     1.315   136.557     0.036     0.044     0.005     0.001     0.001     0.004   107.212     0.026     0.000 .00000E+00 0.000E+00 0.000E+00 0.000E+00 0.000E+00 0.000E+00
BIGSUB   1        0    5.16673E+00   134.700     0.000   133.544    73.389    44.624     0.000     1.653     0.000    78.881     0.001     0.002     0.000     0.000     0.000     0.000    77.085     0.054     0.000 .00000E+00 0.000E+00 0.000E+00 0.000E+00 0.000E+00 0.000E+00
BIGSUB   2        0    5.37378E+00   134.700     0.000   133.540    73.447    44.882     0.043     1.684     0.048    78.745     0.001     0.002     0.000     0.000     0.000     0.000    76.861     0.054     0.000 .00000E+00 0.000E+00 0.000E+00 0.000E+00 0.000E+00 0.000E+00
BIGSUB   3        0    5.15206E+00   134.700     0.000   133.556    76.660    38.044     0.054     1.589     0.059    78.998     0.001     0.002     0.000     0.000     0.000     0.000    77.270     0.043     0.000 .00000E+00 0.000E+00 0.000E+00 0.000E+00 0.000E+00 0.000E+00
BIGSUB   4        0    5.10363E+00   134.700     0.000   133.565    72.727    41.361     0.039     1.403     0.043    80.782     0.001     0.001     0.000     0.000     0.000     0.000    79.238     0.053     0.000 .00000E+00 0.000E+00 0.000E+00 0.000E+00 0.000E+00 0.000E+00
BIGSUB   5        0    5.15596E+00   134.700     0.000   133.551    78.468    36.528     0.053     1.668     0.059    78.169     0.001     0.002     0.000     0.000     0.000     0.000    76.364     0.039     0.000 .00000E+00 0.000E+00 0.000E+00 0.000E+00 0.000E+00 0.000E+00
BIGSUB   6        0    5.12004E+00   134.700     0.000   133.566    72.712    41.261     0.000     1.392     0.000    80.827     0.001     0.001     0.000     0.000     0.000     0.000    79.348     0.053     0.000 .00000E+00 0.000E+00 0.000E+00 0.000E+00 0.000E+00 0.000E+00
BIGSUB   7        0    5.11502E+00   134.700     0.000   133.599    72.717    41.264     0.000     1.393     0.000    80.825     0.001     0.001     0.000     0.000     0.000     0.000    79.351     0.053     0.000 .00000E+00 0.000E+00 0.000E+00 0.000E+00 0.000E+00 0.000E+00
BIGSUB   8        0    5.16827E-01   134.700     0.000   133.634    72.718    41.269     0.000     1.394     0.000    80.835     0.001     0.001     0.000     0.000     0.000     0.000    79.357     0.053     0.000 .00000E+00 0.000E+00 0.000E+00 0.000E+00 0.000E+00 0.000E+00
BIGSUB   9        0    5.33038E-01   134.700     0.000   133.594    73.593    45.478     0.251     1.821     0.278    78.522     0.001     0.002     0.000     0.000     0.000     0.000    76.239     0.054     0.000 .00000E+00 0.000E+00 0.000E+00 0.000E+00 0.000E+00 0.000E+00
BIGSUB  10        0    5.90496E-01   134.700     0.000   133.586    73.234    43.815     0.046     1.619     0.051    79.394     0.001     0.001     0.000     0.000     0.000     0.000    77.589     0.054     0.000 .00000E+00 0.000E+00 0.000E+00 0.000E+00 0.000E+00 0.000E+00
BIGSUB  11        0    5.22470E-01   134.700     0.000   133.624    72.718    41.267     0.000     1.393     0.000    80.830     0.001     0.001     0.000     0.000     0.000     0.000    79.355     0.053     0.000 .00000E+00 0.000E+00 0.000E+00 0.000E+00 0.000E+00 0.000E+00
BIGSUB  12        0    5.69667E-01   134.700     0.000   133.625    72.718    41.267     0.000     1.394     0.000    80.833     0.001     0.001     0.000     0.000     0.000     0.000    79.355     0.053     0.000 .00000E+00 0.000E+00 0.000E+00 0.000E+00 0.000E+00 0.000E+00
BIGSUB  13        0    5.25538E+00   134.700     0.000   133.641    74.124    54.563     0.829     1.640     0.639    78.589     0.003     0.005     0.001     0.000     0.000     0.000    76.033     0.052     0.000 .00000E+00 0.000E+00 0.000E+00 0.000E+00 0.000E+00 0.000E+00
BIGSUB   1        0    6.16673E+00   299.100     0.000    88.335    60.167    60.049     0.000    98.506     0.000   223.711     0.161     0.259     0.032     0.004     0.004     0.024   125.100     0.186     0.000 .00000E+00 0.000E+00 0.000E+00 0.000E+00 0.000E+00 0.000E+00
BIGSUB   2        0    6.37378E+00   299.100     0.000    88.325    60.199    60.408     0.099    98.781     0.062   223.549     0.176     0.266     0.033     0.004     0.004     0.025   124.594     0.185     0.000 .00000E+00 0.000E+00 0.000E+00 0.000E+00 0.000E+00 0.000E+00
BIGSUB   3        0    6.15206E+00   299.100     0.000    88.373    60.188    52.825     0.122    95.688     0.076   224.217     0.206     0.274     0.034     0.003     0.004     0.027   128.393     0.169     0.000 .00000E+00 0.000E+00 0.000E+00 0.000E+00 0.000E+00 0.000E+00
BIGSUB   4        0    6.10363E+00   299.100     0.000    88.398    59.774    54.849     0.088    94.775     0.055   225.953     0.165     0.249     0.031     0.004     0.004     0.023   131.050     0.193     0.000 .00000E+00 0.000E+00 0.000E+00 0.000E+00 0.000E+00 0.000E+00
BIGSUB   5        0    6.15596E+00   299.100     0.000    88.357    60.376    51.954     0.120    96.128     0.075   223.382     0.177     0.279     0.035     0.003     0.005     0.028   127.121     0.158     0.000 .00000E+00 0.000E+00 0.000E+00 0.000E+00 0.000E+00 0.000E+00
BIGSUB   6        0    6.12004E+00   299.100     0.000    88.401    59.765    54.662     0.000    94.671     0.000   226.074     0.183     0.254     0.031     0.004     0.003     0.024   131.339     0.193     0.000 .00000E+00 0.000E+00 0.000E+00 0.000E+00 0.000E+00 0.000E+00
BIGSUB   7        0    6.11502E+00   299.100     0.000    88.502    59.801    54.653     0.000    94.673     0.000   226.045     0.228     0.262     0.033     0.004     0.003     0.025   131.312     0.192     0.000 .00000E+00 0.000E+00 0.000E+00 0.000E+00 0.000E+00 0.000E+00
BIGSUB   8        0    6.16827E-01   299.100     0.000    88.606    59.836    54.646     0.000    94.677     0.000   226.025     0.153     0.244     0.030     0.004     0.004     0.023   131.285     0.194     0.000 .00000E+00 0.000E+00 0.000E+00 0.000E+00 0.000E+00 0.000E+00
BIGSUB   9        0    6.33038E-01   299.100     0.000    88.485    60.335    61.107     0.568    99.380     0.355   223.165     0.130     0.246     0.030     0.004     0.004     0.023   123.289     0.184     0.000 .00000E+00 0.000E+00 0.000E+00 0.000E+00 0.000E+00 0.000E+00
BIGSUB  10        0    6.90496E-01   299.100     0.000    88.463    60.105    58.724     0.104    97.576     0.065   224.240     0.151     0.252     0.031     0.004     0.004     0.024   126.498     0.187     0.000 .00000E+00 0.000E+00 0.000E+00 0.000E+00 0.000E+00 0.000E+00
BIGSUB  11        0    6.22470E-01   299.100     0.000    88.574    59.826    54.648     0.000    94.675     0.000   226.030     0.181     0.253     0.031     0.004     0.003     0.024   131.293     0.193     0.000 .00000E+00 0.000E+00 0.000E+00 0.000E+00 0.000E+00 0.000E+00
BIGSUB  12        0    6.69667E-01   299.100     0.000    88.579    59.828    54.648     0.000    94.676     0.000   226.030     0.183     0.254     0.031     0.004     0.003     0.024   131.292     0.193     0.000 .00000E+00 0.000E+00 0.000E+00 0.000E+00 0.000E+00 0.000E+00
BIGSUB  13        0    6.25538E+00   299.100     0.000    88.626    60.484    70.014     2.065    93.267     0.994   222.384     0.279     0.277     0.034     0.004     0.004     0.026   127.906     0.192     0.000 .00000E+00 0.000E+00 0.000E+00 0.000E+00 0.000E+00 0.000E+00
BIGSUB   1        0    7.16673E+00   248.800     0.000   102.696    73.221    73.049     0.000    15.351     0.000   162.897     0.038     0.073     0.009     0.001     0.001     0.007   147.465     0.194     0.000 .00000E+00 0.000E+00 0.000E+00 0.000E+00 0.000E+00 0.000E+00
BIGSUB   2        0    7.37378E+00   248.800     0.000   102.679    73.277    73.529     0.152    15.582     0.081   162.654     0.043     0.076     0.009     0.001     0.001     0.007   146.902     0.193     0.000 .00000E+00 0.000E+00 0.000E+00 0.000E+00 0.000E+00 0.000E+00
BIGSUB   3        0    7.15206E+00   248.800     0.000   102.759    72.000    63.316     0.188    13.685     0.099   166.519     0.041     0.069     0.009     0.001     0.001     0.007   152.686     0.203     0.000 .00000E+00 0.000E+00 0.000E+00 0.000E+00 0.000E+00 0.000E+00
BIGSUB   4        0    7.10363E+00   248.800     0.000   102.801    72.433    65.494     0.136    12.028     0.072   165.964     0.031     0.056     0.007     0.001     0.000     0.005   153.807     0.203     0.000 .00000E+00 0.000E+00 0.000E+00 0.000E+00 0.000E+00 0.000E+00
BIGSUB   5        0    7.15596E+00   248.800     0.000   102.733    71.803    62.429     0.185    14.493     0.098   166.733     0.036     0.074     0.009     0.002     0.001     0.008   152.096     0.203     0.000 .00000E+00 0.000E+00 0.000E+00 0.000E+00 0.000E+00 0.000E+00
BIGSUB   6        0    7.12004E+00   248.800     0.000   102.805    72.415    65.205     0.000    11.907     0.000   166.141     0.035     0.056     0.007     0.001     0.000     0.005   154.184     0.203     0.000 .00000E+00 0.000E+00 0.000E+00 0.000E+00 0.000E+00 0.000E+00
BIGSUB   7        0    7.11502E+00   248.800     0.000   102.972    72.475    65.175     0.000    11.900     0.000   166.099     0.043     0.058     0.007     0.001     0.000     0.005   154.153     0.203     0.000 .00000E+00 0.000E+00 0.000E+00 0.000E+00 0.000E+00 0.000E+00
BIGSUB   8        0    7.16827E-01   248.800     0.000   103.143    72.535    65.146     0.000    11.893     0.000   166.063     0.029     0.054     0.007     0.001     0.000     0.005   154.122     0.204     0.000 .00000E+00 0.000E+00 0.000E+00 0.000E+00 0.000E+00 0.000E+00
BIGSUB   9        0    7.33038E-01   248.800     0.000   102.943    73.497    74.338     0.874    16.006     0.464   162.009     0.032     0.072     0.009     0.001     0.001     0.007   145.424     0.192     0.000 .00000E+00 0.000E+00 0.000E+00 0.000E+00 0.000E+00 0.000E+00
BIGSUB  10        0    7.90496E-01   248.800     0.000   102.907    73.076    71.097     0.160    14.471     0.085   163.594     0.034     0.067     0.008     0.001     0.001     0.006   148.959     0.196     0.000 .00000E+00 0.000E+00 0.000E+00 0.000E+00 0.000E+00 0.000E+00
BIGSUB  11        0    7.22470E-01   248.800     0.000   103.091    72.517    65.154     0.000    11.895     0.000   166.073     0.034     0.056     0.007     0.001     0.000     0.005   154.131     0.203     0.000 .00000E+00 0.000E+00 0.000E+00 0.000E+00 0.000E+00 0.000E+00
BIGSUB  12        0    7.69667E-01   248.800     0.000   103.100    72.520    65.153     0.000    11.894     0.000   166.072     0.035     0.056     0.007     0.001     0.000     0.005   154.130     0.203     0.000 .00000E+00 0.000E+00 0.000E+00 0.000E+00 0.000E+00 0.000E+00
BIGSUB  13        0    7.25538E+00   248.800     0.000   103.177    73.491    81.778     3.571    11.693     1.561   161.947     0.054     0.061     0.008     0.001     0.000     0.006   148.504     0.198     0.000 .00000E+00 0.000E+00 0.000E+00 0.000E+00 0.000E+00 0.000E+00
BIGSUB   1        0    8.16673E+00   467.800     0.000   112.332    71.369    88.187     2.089   167.119     0.000   379.049     1.090     2.048     0.252     0.006     0.006     0.194   211.867     0.208     0.000 .00000E+00 0.000E+00 0.000E+00 0.000E+00 0.000E+00 0.000E+00
BIGSUB   2        0    8.37378E+00   467.800     0.000   112.317    71.416    88.194     2.573   167.839     0.128   379.128     1.197     2.099     0.258     0.006     0.006     0.199   211.091     0.209     0.000 .00000E+00 0.000E+00 0.000E+00 0.000E+00 0.000E+00 0.000E+00
BIGSUB   3        0    8.15206E+00   467.800     0.000   112.389    69.915    81.721     0.285   158.321     0.158   379.161     1.320     2.006     0.249     0.007     0.007     0.197   220.644     0.203     0.000 .00000E+00 0.000E+00 0.000E+00 0.000E+00 0.000E+00 0.000E+00
BIGSUB   4        0    8.10363E+00   467.800     0.000   112.428    70.475    84.418     0.206   153.193     0.114   378.125     1.065     1.869     0.230     0.006     0.005     0.177   224.773     0.201     0.000 .00000E+00 0.000E+00 0.000E+00 0.000E+00 0.000E+00 0.000E+00
BIGSUB   5        0    8.15596E+00   467.800     0.000   112.366    69.678    80.655     0.280   160.949     0.156   379.579     1.128     2.039     0.254     0.008     0.008     0.204   218.438     0.204     0.000 .00000E+00 0.000E+00 0.000E+00 0.000E+00 0.000E+00 0.000E+00
BIGSUB   6        0    8.12004E+00   467.800     0.000   112.432    70.422    84.029     0.000   152.582     0.000   378.362     1.178     1.898     0.233     0.006     0.005     0.180   225.744     0.202     0.000 .00000E+00 0.000E+00 0.000E+00 0.000E+00 0.000E+00 0.000E+00
BIGSUB   7        0    8.11502E+00   467.800     0.000   112.584    70.478    83.991     0.000   152.523     0.000   378.311     1.464     1.948     0.240     0.006     0.004     0.186   225.753     0.202     0.000 .00000E+00 0.000E+00 0.000E+00 0.000E+00 0.000E+00 0.000E+00
BIGSUB   8        0    8.16827E-01   467.800     0.000   112.740    70.532    83.956     0.000   152.467     0.000   378.265     0.987     1.834     0.225     0.006     0.005     0.174   225.761     0.203     0.000 .00000E+00 0.000E+00 0.000E+00 0.000E+00 0.000E+00 0.000E+00
BIGSUB   9        0    8.33038E-01   467.800     0.000   112.558    71.606    88.196     4.065   168.994     0.737   378.893     0.886     1.962     0.241     0.006     0.007     0.185   209.063     0.210     0.000 .00000E+00 0.000E+00 0.000E+00 0.000E+00 0.000E+00 0.000E+00
BIGSUB  10        0    8.90496E-01   467.800     0.000   112.525    71.246    88.124     1.282   163.905     0.135   378.221     1.016     1.968     0.242     0.006     0.006     0.186   214.120     0.204     0.000 .00000E+00 0.000E+00 0.000E+00 0.000E+00 0.000E+00 0.000E+00
BIGSUB  11        0    8.22470E-01   467.800     0.000   112.693    70.516    83.966     0.000   152.484     0.000   378.278     1.164     1.891     0.233     0.006     0.005     0.180   225.759     0.203     0.000 .00000E+00 0.000E+00 0.000E+00 0.000E+00 0.000E+00 0.000E+00
BIGSUB  12        0    8.69667E-01   467.800     0.000   112.700    70.519    83.964     0.000   152.481     0.000   378.276     1.177     1.895     0.233     0.006     0.005     0.180   225.760     0.203     0.000 .00000E+00 0.000E+00 0.000E+00 0.000E+00 0.000E+00 0.000E+00
BIGSUB  13        0    8.25538E+00   467.800     0.000   112.771    71.505    96.732     9.774   146.317     3.055   374.601     1.715     1.818     0.224     0.006     0.005     0.173   225.038     0.214     0.001 .00000E+00 0.000E+00 0.000E+00 0.000E+00 0.000E+00 0.000E+00
BIGSUB   1        0    9.16673E+00   166.700     0.000   150.079    80.811    78.643     0.418    19.945     0.000    95.352     0.320     0.491     0.060     0.002     0.001     0.047    75.347     0.050     0.000 .00000E+00 0.000E+00 0.000E+00 0.000E+00 0.000E+00 0.000E+00
BIGSUB   2        0    9.37378E+00   166.700     0.000   150.063    80.856    78.686     0.511    19.949     0.152    95.338     0.350     0.499     0.061     0.002     0.001     0.047    75.168     0.050     0.000 .00000E+00 0.000E+00 0.000E+00 0.000E+00 0.000E+00 0.000E+00
BIGSUB   3        0    9.15206E+00   166.700     0.000   150.141    78.855    73.036     0.083    19.727     0.187    96.956     0.397     0.493     0.061     0.002     0.001     0.049    77.012     0.046     0.000 .00000E+00 0.000E+00 0.000E+00 0.000E+00 0.000E+00 0.000E+00
BIGSUB   4        0    9.10363E+00   166.700     0.000   150.182    79.597    75.275     0.060    18.542     0.135    96.648     0.318     0.455     0.056     0.002     0.001     0.043    77.936     0.045     0.000 .00000E+00 0.000E+00 0.000E+00 0.000E+00 0.000E+00 0.000E+00
BIGSUB   5        0    9.15596E+00   166.700     0.000   150.116    78.554    72.141     0.082    20.341     0.183    97.084     0.343     0.522     0.065     0.003     0.001     0.053    76.530     0.047     0.000 .00000E+00 0.000E+00 0.000E+00 0.000E+00 0.000E+00 0.000E+00
BIGSUB   6        0    9.12004E+00   166.700     0.000   150.186    79.494    74.968     0.000    18.394     0.000    96.586     0.350     0.458     0.056     0.002     0.001     0.044    78.166     0.045     0.000 .00000E+00 0.000E+00 0.000E+00 0.000E+00 0.000E+00 0.000E+00
BIGSUB   7        0    9.11502E+00   166.700     0.000   150.349    79.516    74.923     0.000    18.380     0.000    96.569     0.436     0.460     0.057     0.002     0.000     0.044    78.165     0.045     0.000 .00000E+00 0.000E+00 0.000E+00 0.000E+00 0.000E+00 0.000E+00
BIGSUB   8        0    9.16827E-01   166.700     0.000   150.515    79.539    74.879     0.000    18.367     0.000    96.556     0.294     0.446     0.055     0.002     0.001     0.042    78.164     0.046     0.000 .00000E+00 0.000E+00 0.000E+00 0.000E+00 0.000E+00 0.000E+00
BIGSUB   9        0    9.33038E-01   166.700     0.000   150.321    81.008    78.738     0.872    19.952     0.869    95.524     0.257     0.468     0.057     0.002     0.001     0.044    74.599     0.050     0.000 .00000E+00 0.000E+00 0.000E+00 0.000E+00 0.000E+00 0.000E+00
BIGSUB  10        0    9.90496E-01   166.700     0.000   150.285    80.691    78.474     0.368    19.924     0.159    95.785     0.304     0.483     0.059     0.002     0.001     0.046    75.647     0.048     0.000 .00000E+00 0.000E+00 0.000E+00 0.000E+00 0.000E+00 0.000E+00
BIGSUB  11        0    9.22470E-01   166.700     0.000   150.465    79.532    74.892     0.000    18.371     0.000    96.559     0.346     0.457     0.056     0.002     0.001     0.044    78.164     0.045     0.000 .00000E+00 0.000E+00 0.000E+00 0.000E+00 0.000E+00 0.000E+00
BIGSUB  12        0    9.69667E-01   166.700     0.000   150.473    79.533    74.890     0.000    18.370     0.000    96.559     0.350     0.458     0.056     0.002     0.001     0.044    78.164     0.045     0.000 .00000E+00 0.000E+00 0.000E+00 0.000E+00 0.000E+00 0.000E+00
BIGSUB  13        0    9.25538E+00   166.700     0.000   150.548    81.081    87.616     1.957    16.832     4.999    98.287     0.504     0.377     0.046     0.002     0.001     0.036    76.238     0.047     0.001 .00000E+00 0.000E+00 0.000E+00 0.000E+00 0.000E+00 0.000E+00
BIGSUB   1        0   10.16673E+00   234.500     0.000   163.297    74.392    85.396     0.000    55.331     0.000   147.197     1.534     2.111     0.259     0.006     0.002     0.201    91.811     0.102     0.000 .00000E+00 0.000E+00 0.000E+00 0.000E+00 0.000E+00 0.000E+00
BIGSUB   2        0   10.37378E+00   234.500     0.000   163.282    74.444    85.509     0.088    55.383     0.114   147.125     1.678     2.118     0.260     0.006     0.002     0.202    91.563     0.102     0.000 .00000E+00 0.000E+00 0.000E+00 0.000E+00 0.000E+00 0.000E+00
BIGSUB   3        0   10.15206E+00   234.500     0.000   163.351    72.678    79.317     0.108    55.205     0.141   149.234     1.976     2.191     0.273     0.008     0.002     0.221    93.863     0.098     0.000 .00000E+00 0.000E+00 0.000E+00 0.000E+00 0.000E+00 0.000E+00
BIGSUB   4        0   10.10363E+00   234.500     0.000   163.388    73.288    81.471     0.078    52.459     0.102   148.557     1.558     1.984     0.244     0.007     0.002     0.190    95.969     0.099     0.000 .00000E+00 0.000E+00 0.000E+00 0.000E+00 0.000E+00 0.000E+00
BIGSUB   5        0   10.15596E+00   234.500     0.000   163.329    72.423    78.428     0.107    56.574     0.139   149.555     1.722     2.403     0.300     0.008     0.003     0.246    92.818     0.098     0.000 .00000E+00 0.000E+00 0.000E+00 0.000E+00 0.000E+00 0.000E+00
BIGSUB   6        0   10.12004E+00   234.500     0.000   163.392    73.217    81.233     0.000    52.227     0.000   148.512     1.721     1.967     0.241     0.007     0.001     0.188    96.265     0.099     0.000 .00000E+00 0.000E+00 0.000E+00 0.000E+00 0.000E+00 0.000E+00
BIGSUB   7        0   10.11502E+00   234.500     0.000   163.537    73.238    81.194     0.000    52.192     0.000   148.482     2.139     1.884     0.232     0.006     0.001     0.181    96.271     0.098     0.000 .00000E+00 0.000E+00 0.000E+00 0.000E+00 0.000E+00 0.000E+00
BIGSUB   8        0   10.16827E-01   234.500     0.000   163.685    73.260    81.156     0.000    52.158     0.000   148.455     1.442     1.970     0.242     0.007     0.002     0.188    96.277     0.099     0.000 .00000E+00 0.000E+00 0.000E+00 0.000E+00 0.000E+00 0.000E+00
BIGSUB   9        0   10.33038E-01   234.500     0.000   163.512    74.606    85.688     0.505    55.440     0.657   147.024     1.234     2.077     0.255     0.006     0.002     0.197    90.828     0.102     0.000 .00000E+00 0.000E+00 0.000E+00 0.000E+00 0.000E+00 0.000E+00
BIGSUB  10        0   10.90496E-01   234.500     0.000   163.480    74.243    84.954     0.092    55.115     0.120   147.607     1.458     2.088     0.256     0.007     0.002     0.199    92.323     0.100     0.000 .00000E+00 0.000E+00 0.000E+00 0.000E+00 0.000E+00 0.000E+00
BIGSUB  11        0   10.22470E-01   234.500     0.000   163.640    73.253    81.167     0.000    52.168     0.000   148.462     1.700     1.966     0.241     0.007     0.001     0.188    96.275     0.099     0.000 .00000E+00 0.000E+00 0.000E+00 0.000E+00 0.000E+00 0.000E+00
BIGSUB  12        0   10.69667E-01   234.500     0.000   163.647    73.254    81.165     0.000    52.166     0.000   148.462     1.719     1.962     0.241     0.007     0.001     0.188    96.276     0.099     0.000 .00000E+00 0.000E+00 0.000E+00 0.000E+00 0.000E+00 0.000E+00
BIGSUB  13        0   10.25538E+00   234.500     0.000   163.715    74.832    95.214     1.900    48.702     3.381   147.300     2.471     1.579     0.194     0.006     0.001     0.152    95.002     0.100     0.001 .00000E+00 0.000E+00 0.000E+00 0.000E+00 0.000E+00 0.000E+00
BIGSUB   1        0   11.16673E+00   180.900     0.000   149.757    75.390    83.563     0.000    28.360     0.000   108.095     1.442     1.662     0.204     0.003     0.001     0.159    79.691     0.092     0.000 .00000E+00 0.000E+00 0.000E+00 0.000E+00 0.000E+00 0.000E+00
BIGSUB   2        0   11.37378E+00   180.900     0.000   149.747    75.479    83.722     0.064    28.436     0.084   107.990     1.577     1.646     0.202     0.003     0.001     0.158    79.419     0.092     0.000 .00000E+00 0.000E+00 0.000E+00 0.000E+00 0.000E+00 0.000E+00
BIGSUB   3        0   11.15206E+00   180.900     0.000   149.798    73.327    77.559     0.079    28.126     0.103   110.147     1.894     1.858     0.232     0.003     0.001     0.190    81.899     0.087     0.000 .00000E+00 0.000E+00 0.000E+00 0.000E+00 0.000E+00 0.000E+00
BIGSUB   4        0   11.10363E+00   180.900     0.000   149.825    73.804    79.515     0.057    26.225     0.075   109.868     1.448     1.527     0.187     0.003     0.001     0.146    83.548     0.089     0.000 .00000E+00 0.000E+00 0.000E+00 0.000E+00 0.000E+00 0.000E+00
BIGSUB   5        0   11.15596E+00   180.900     0.000   149.781    73.121    76.748     0.078    29.052     0.102   110.273     1.688     2.120     0.266     0.003     0.001     0.220    81.101     0.087     0.000 .00000E+00 0.000E+00 0.000E+00 0.000E+00 0.000E+00 0.000E+00
BIGSUB   6        0   11.12004E+00   180.900     0.000   149.827    73.757    79.301     0.000    26.106     0.000   109.866     1.600     1.496     0.184     0.003     0.001     0.144    83.746     0.089     0.000 .00000E+00 0.000E+00 0.000E+00 0.000E+00 0.000E+00 0.000E+00
BIGSUB   7        0   11.11502E+00   180.900     0.000   149.935    73.769    79.265     0.000    26.084     0.000   109.851     1.988     1.421     0.174     0.003     0.001     0.137    83.754     0.089     0.000 .00000E+00 0.000E+00 0.000E+00 0.000E+00 0.000E+00 0.000E+00
BIGSUB   8        0   11.16827E-01   180.900     0.000   150.044    73.780    79.230     0.000    26.062     0.000   109.838     1.341     1.534     0.188     0.003     0.001     0.147    83.762     0.090     0.000 .00000E+00 0.000E+00 0.000E+00 0.000E+00 0.000E+00 0.000E+00
BIGSUB   9        0   11.33038E-01   180.900     0.000   149.916    75.683    83.980     0.368    28.560     0.482   107.832     1.162     1.687     0.207     0.003     0.001     0.161    78.709     0.092     0.000 .00000E+00 0.000E+00 0.000E+00 0.000E+00 0.000E+00 0.000E+00
BIGSUB  10        0   11.90496E-01   180.900     0.000   149.893    75.092    82.937     0.067    28.072     0.088   108.583     1.366     1.649     0.202     0.003     0.001     0.158    80.386     0.091     0.000 .00000E+00 0.000E+00 0.000E+00 0.000E+00 0.000E+00 0.000E+00
BIGSUB  11        0   11.22470E-01   180.900     0.000   150.011    73.777    79.240     0.000    26.068     0.000   109.841     1.580     1.496     0.184     0.003     0.001     0.144    83.759     0.089     0.000 .00000E+00 0.000E+00 0.000E+00 0.000E+00 0.000E+00 0.000E+00
BIGSUB  12        0   11.69667E-01   180.900     0.000   150.016    73.777    79.239     0.000    26.067     0.000   109.841     1.598     1.493     0.183     0.003     0.001     0.143    83.760     0.089     0.000 .00000E+00 0.000E+00 0.000E+00 0.000E+00 0.000E+00 0.000E+00
BIGSUB  13        0   11.25538E+00   180.900     0.000   150.066    75.398    93.933     1.411    24.395     1.614   107.907     2.296     1.206     0.148     0.002     0.001     0.117    81.714     0.089     0.000 .00000E+00 0.000E+00 0.000E+00 0.000E+00 0.000E+00 0.000E+00
BIGSUB   1        0   12.16673E+00   309.800     0.000   145.765    95.891    89.986     0.422    53.388     0.000   205.599     4.979     4.741     0.581     0.002     0.001     0.454   152.176     0.210     0.000 .00000E+00 0.000E+00 0.000E+00 0.000E+00 0.000E+00 0.000E+00
BIGSUB   2        0   12.37378E+00   309.800     0.000   145.761    95.957    90.028     0.686    53.531     0.095   205.484     5.438     4.666     0.572     0.002     0.001     0.448   151.814     0.210     0.000 .00000E+00 0.000E+00 0.000E+00 0.000E+00 0.000E+00 0.000E+00
BIGSUB   3        0   12.15206E+00   309.800     0.000   145.781    93.819    83.313     0.192    52.279     0.117   208.612     6.695     5.469     0.682     0.003     0.002     0.563   156.200     0.216     0.000 .00000E+00 0.000E+00 0.000E+00 0.000E+00 0.000E+00 0.000E+00
BIGSUB   4        0   12.10363E+00   309.800     0.000   145.791    94.315    85.375     0.139    48.964     0.085   207.942     5.033     4.361     0.535     0.002     0.001     0.419   158.876     0.213     0.000 .00000E+00 0.000E+00 0.000E+00 0.000E+00 0.000E+00 0.000E+00
BIGSUB   5        0   12.15596E+00   309.800     0.000   145.774    93.615    82.471     0.188    53.905     0.115   208.895     6.041     6.340     0.795     0.003     0.002     0.663   154.859     0.218     0.000 .00000E+00 0.000E+00 0.000E+00 0.000E+00 0.000E+00 0.000E+00
BIGSUB   6        0   12.12004E+00   309.800     0.000   145.792    94.243    85.133     0.000    48.741     0.000   208.081     5.560     4.250     0.521     0.002     0.001     0.409   159.329     0.214     0.000 .00000E+00 0.000E+00 0.000E+00 0.000E+00 0.000E+00 0.000E+00
BIGSUB   7        0   12.11502E+00   309.800     0.000   145.833    94.246    85.107     0.000    48.710     0.000   208.067     6.914     3.986     0.489     0.002     0.001     0.386   159.347     0.213     0.000 .00000E+00 0.000E+00 0.000E+00 0.000E+00 0.000E+00 0.000E+00
BIGSUB   8        0   12.16827E-01   309.800     0.000   145.876    94.249    85.081     0.000    48.680     0.000   208.055     4.668     4.405     0.540     0.002     0.001     0.422   159.364     0.215     0.000 .00000E+00 0.000E+00 0.000E+00 0.000E+00 0.000E+00 0.000E+00
BIGSUB   9        0   12.33038E-01   309.800     0.000   145.826    96.116    90.106     1.594    53.732     0.547   205.058     4.008     4.880     0.598     0.003     0.002     0.465   150.705     0.212     0.000 .00000E+00 0.000E+00 0.000E+00 0.000E+00 0.000E+00 0.000E+00
BIGSUB  10        0   12.90496E-01   309.800     0.000   145.817    95.666    89.763     0.163    52.773     0.100   205.788     4.730     4.726     0.579     0.003     0.001     0.452   152.883     0.206     0.000 .00000E+00 0.000E+00 0.000E+00 0.000E+00 0.000E+00 0.000E+00
BIGSUB  11        0   12.22470E-01   309.800     0.000   145.863    94.248    85.089     0.000    48.689     0.000   208.058     5.499     4.258     0.522     0.002     0.001     0.410   159.359     0.214     0.000 .00000E+00 0.000E+00 0.000E+00 0.000E+00 0.000E+00 0.000E+00
BIGSUB  12        0   12.69667E-01   309.800     0.000   145.865    94.248    85.088     0.000    48.687     0.000   208.058     5.562     4.246     0.521     0.002     0.001     0.409   159.360     0.214     0.000 .00000E+00 0.000E+00 0.000E+00 0.000E+00 0.000E+00 0.000E+00
BIGSUB  13        0   12.25538E+00   309.800     0.000   145.884    95.646    98.664     5.557    45.244     2.391   204.621     7.987     3.367     0.413     0.002     0.001     0.326   156.810     0.217     0.001 .00000E+00 0.000E+00 0.000E+00 0.000E+00 0.000E+00 0.000E+00
BIGSUB   1        0 2013.16673E+00  3096.300     0.000  1498.164   901.754    89.986    17.797   673.910     0.000  2167.263    26.951    43.763     5.352     0.030     0.026     4.259  1492.073     1.670     0.000 .00000E+00 0.000E+00 0.000E+00 0.000E+00 0.000E+00 0.000E+00
BIGSUB   2        0 2013.37378E+00  3096.300     0.000  1498.095   902.350    90.028    19.844   675.622     1.350  2166.087    29.399    44.358     5.425     0.030     0.025     4.323  1487.723     1.668     0.000 .00000E+00 0.000E+00 0.000E+00 0.000E+00 0.000E+00 0.000E+00
BIGSUB   3        0 2013.15206E+00  3096.301     0.000  1498.425   891.819    83.313    10.158   674.792     1.663  2191.760    35.113    42.507     5.226     0.040     0.036     4.227  1514.625     1.613     0.000 .00000E+00 0.000E+00 0.000E+00 0.000E+00 0.000E+00 0.000E+00
BIGSUB   4        0 2013.10363E+00  3096.300     0.000  1498.601   891.465    85.375    11.761   639.603     1.202  2188.116    29.114    44.252     5.411     0.030     0.024     4.315  1546.485     1.654     0.000 .00000E+00 0.000E+00 0.000E+00 0.000E+00 0.000E+00 0.000E+00
BIGSUB   5        0 2013.15596E+00  3096.300     0.000  1498.319   892.100    82.471     9.962   691.649     1.635  2192.485    29.337    40.449     4.989     0.046     0.043     4.052  1498.542     1.592     0.000 .00000E+00 0.000E+00 0.000E+00 0.000E+00 0.000E+00 0.000E+00
BIGSUB   6        0 2013.12004E+00  3096.300     0.000  1498.618   891.061    85.133     9.905   637.962     0.000  2189.267    32.280    44.974     5.500     0.030     0.023     4.393  1550.594     1.663     0.000 .00000E+00 0.000E+00 0.000E+00 0.000E+00 0.000E+00 0.000E+00
BIGSUB   7        0 2013.11502E+00  3096.300     0.000  1499.311   891.229    85.107     9.237   637.817     0.000  2189.750    40.132    46.279     5.660     0.029     0.021     4.535  1551.271     1.663     0.000 .00000E+00 0.000E+00 0.000E+00 0.000E+00 0.000E+00 0.000E+00
BIGSUB   8        0 2013.16827E-01  3096.300     0.000  1500.017   891.388    85.081     9.620   637.680     0.000  2189.268    27.099    43.747     5.349     0.030     0.025     4.261  1550.898     1.671     0.000 .00000E+00 0.000E+00 0.000E+00 0.000E+00 0.000E+00 0.000E+00
BIGSUB   9        0 2013.33038E-01  3096.300     0.000  1499.191   903.934    90.106    27.480   678.734     7.753  2163.717    21.584    41.916     5.126     0.031     0.029     4.064  1475.422     1.673     0.002 .00000E+00 0.000E+00 0.000E+00 0.000E+00 0.000E+00 0.000E+00
BIGSUB  10        0 2013.90496E-01  3096.300     0.000  1499.041   899.882    89.763    16.503   667.182     1.416  2171.857    25.858    43.430     5.311     0.031     0.026     4.225  1502.059     1.659     0.000 .00000E+00 0.000E+00 0.000E+00 0.000E+00 0.000E+00 0.000E+00
BIGSUB  11        0 2013.22470E-01  3096.300     0.000  1499.805   891.341    85.089     9.320   637.720     0.000  2189.584    31.918    44.881     5.488     0.030     0.023     4.383  1551.195     1.669     0.000 .00000E+00 0.000E+00 0.000E+00 0.000E+00 0.000E+00 0.000E+00
BIGSUB  12        0 2013.69667E-01  3096.300     0.000  1499.839   891.349    85.088     9.609   637.713     0.000  2189.309    32.293    44.957     5.498     0.030     0.023     4.391  1550.907     1.666     0.000 .00000E+00 0.000E+00 0.000E+00 0.000E+00 0.000E+00 0.000E+00
BIGSUB  13        0 2013.25538E+00  3096.301     0.000  1500.159   908.325    98.664    52.442   604.036    40.254  2170.902    46.512    43.479     5.316     0.029     0.024     4.258  1523.512     1.686     0.011 .00000E+00 0.000E+00 0.000E+00 0.000E+00 0.000E+00 0.000E+00
BIGSUB   1        0    1.16673E+00   549.600     0.000   142.940    95.871    87.991     9.616   177.193     0.000   452.410     9.830    27.863     3.403     0.004     0.010     2.726   275.150     0.407     0.000 .00000E+00 0.000E+00 0.000E+00 0.000E+00 0.000E+00 0.000E+00
BIGSUB   2        0    1.37378E+00   549.600     0.000   142.948    95.922    88.004    10.094   177.232     0.159   452.071    10.722    28.437     3.473     0.004     0.010     2.786   274.603     0.407     0.000 .00000E+00 0.000E+00 0.000E+00 0.000E+00 0.000E+00 0.000E+00
BIGSUB   3        0    1.15206E+00   549.600     0.000   142.912    95.070    87.400     3.710   183.152     0.196   453.295    14.575    34.524     4.247     0.005     0.011     3.464   269.919     0.351     0.000 .00000E+00 0.000E+00 0.000E+00 0.000E+00 0.000E+00 0.000E+00
BIGSUB   4        0    1.10363E+00   549.600     0.000   142.893    95.207    87.797     5.122   173.943     0.142   453.594    10.733    28.341     3.461     0.004     0.010     2.776   279.475     0.367     0.000 .00000E+00 0.000E+00 0.000E+00 0.000E+00 0.000E+00 0.000E+00
BIGSUB   5        0    1.15596E+00   549.600     0.000   142.923    95.006    87.217     3.430   187.490     0.193   452.858    13.315    35.883     4.428     0.005     0.012     3.628   265.150     0.344     0.000 .00000E+00 0.000E+00 0.000E+00 0.000E+00 0.000E+00 0.000E+00
BIGSUB   6        0    1.12004E+00   549.600     0.000   142.891    95.197    87.794     4.454   173.728     0.000   453.907    11.905    29.068     3.550     0.004     0.010     2.852   280.154     0.368     0.000 .00000E+00 0.000E+00 0.000E+00 0.000E+00 0.000E+00 0.000E+00
BIGSUB   7        0    1.11502E+00   549.600     0.000   142.816    95.179    87.804     4.135   173.709     0.000   454.207    14.797    30.635     3.741     0.004     0.009     3.014   280.475     0.369     0.000 .00000E+00 0.000E+00 0.000E+00 0.000E+00 0.000E+00 0.000E+00
BIGSUB   8        0    1.16827E-01   549.600     0.000   142.740    95.160    87.813     4.299   173.691     0.000   454.030     9.991    27.844     3.401     0.004     0.010     2.725   280.314     0.370     0.000 .00000E+00 0.000E+00 0.000E+00 0.000E+00 0.000E+00 0.000E+00
BIGSUB   9        0    1.33038E-01   549.600     0.000   142.829    96.000    88.053    11.757   177.343     0.913   451.149     7.864    26.233     3.204     0.004     0.011     2.558   272.780     0.408     0.000 .00000E+00 0.000E+00 0.000E+00 0.000E+00 0.000E+00 0.000E+00
BIGSUB  10        0    1.90496E-01   549.600     0.000   142.846    95.688    87.956     9.063   177.049     0.167   453.138     9.442    27.597     3.371     0.004     0.010     2.698   275.862     0.403     0.000 .00000E+00 0.000E+00 0.000E+00 0.000E+00 0.000E+00 0.000E+00
BIGSUB  11        0    1.22470E-01   549.600     0.000   142.763    95.166    87.810     4.167   173.697     0.000   454.165    11.767    28.977     3.539     0.004     0.010     2.842   280.445     0.370     0.000 .00000E+00 0.000E+00 0.000E+00 0.000E+00 0.000E+00 0.000E+00
BIGSUB  12        0    1.69667E-01   549.600     0.000   142.759    95.165    87.811     4.295   173.696     0.000   454.036    11.906    29.060     3.549     0.004     0.010     2.851   280.317     0.369     0.000 .00000E+00 0.000E+00 0.000E+00 0.000E+00 0.000E+00 0.000E+00
BIGSUB  13        0    1.25538E+00   549.600     0.000   142.724    96.117   100.012    15.661   160.658     5.828   449.285    17.134    29.616     3.616     0.004     0.009     2.911   282.568     0.377     0.002 .00000E+00 0.000E+00 0.000E+00 0.000E+00 0.000E+00 0.000E+00
BIGSUB   1        0    2.16673E+00   351.600     0.000   144.320    99.136    89.688     2.815    75.222     0.000   245.421     0.353     0.819     0.100     0.000     0.000     0.080   170.103     0.007     0.000 .00000E+00 0.000E+00 0.000E+00 0.000E+00 0.000E+00 0.000E+00
BIGSUB   2        0    2.37378E+00   351.600     0.000   144.328    99.165    89.689     3.093    75.291     0.154   245.289     0.385     0.824     0.101     0.000     0.000     0.081   169.738     0.007     0.000 .00000E+00 0.000E+00 0.000E+00 0.000E+00 0.000E+00 0.000E+00
BIGSUB   3        0    2.15206E+00   351.600     0.000   144.290    97.548    89.485     1.208    80.908     0.190   248.544     0.621     1.250     0.154     0.000     0.001     0.127   167.407     0.006     0.000 .00000E+00 0.000E+00 0.000E+00 0.000E+00 0.000E+00 0.000E+00
BIGSUB   4        0    2.10363E+00   351.600     0.000   144.270    98.590    89.688     1.565    73.945     0.137   247.151     0.388     0.840     0.103     0.000     0.000     0.082   173.018     0.006     0.000 .00000E+00 0.000E+00 0.000E+00 0.000E+00 0.000E+00 0.000E+00
BIGSUB   5        0    2.15596E+00   351.600     0.000   144.302    97.069    89.392     1.124    84.127     0.187   249.091     0.626     1.438     0.178     0.000     0.001     0.147   164.741     0.006     0.000 .00000E+00 0.000E+00 0.000E+00 0.000E+00 0.000E+00 0.000E+00
BIGSUB   6        0    2.12004E+00   351.600     0.000   144.268    98.587    89.688     1.299    73.918     0.000   247.263     0.430     0.847     0.103     0.000     0.000     0.083   173.304     0.006     0.000 .00000E+00 0.000E+00 0.000E+00 0.000E+00 0.000E+00 0.000E+00
BIGSUB   7        0    2.11502E+00   351.600     0.000   144.189    98.545    89.687     1.216    73.938     0.000   247.386     0.535     0.853     0.104     0.000     0.000     0.084   173.410     0.006     0.000 .00000E+00 0.000E+00 0.000E+00 0.000E+00 0.000E+00 0.000E+00
BIGSUB   8        0    2.16827E-01   351.600     0.000   144.108    98.503    89.686     1.272    73.960     0.000   247.389     0.361     0.837     0.102     0.000     0.000     0.082   173.391     0.006     0.000 .00000E+00 0.000E+00 0.000E+00 0.000E+00 0.000E+00 0.000E+00
BIGSUB   9        0    2.33038E-01   351.600     0.000   144.202    99.142    89.689     4.138    75.445     0.885   245.082     0.283     0.796     0.097     0.000     0.001     0.078   168.611     0.007     0.000 .00000E+00 0.000E+00 0.000E+00 0.000E+00 0.000E+00 0.000E+00
BIGSUB  10        0    2.90496E-01   351.600     0.000   144.220    98.985    89.688     2.621    74.954     0.162   245.886     0.339     0.817     0.100     0.000     0.000     0.080   170.682     0.006     0.000 .00000E+00 0.000E+00 0.000E+00 0.000E+00 0.000E+00 0.000E+00
BIGSUB  11        0    2.22470E-01   351.600     0.000   144.132    98.516    89.686     1.231    73.953     0.000   247.410     0.425     0.847     0.103     0.000     0.000     0.083   173.419     0.006     0.000 .00000E+00 0.000E+00 0.000E+00 0.000E+00 0.000E+00 0.000E+00
BIGSUB  12        0    2.69667E-01   351.600     0.000   144.128    98.514    89.686     1.269    73.954     0.000   247.379     0.430     0.847     0.103     0.000     0.000     0.083   173.385     0.006     0.000 .00000E+00 0.000E+00 0.000E+00 0.000E+00 0.000E+00 0.000E+00
BIGSUB  13        0    2.25538E+00   351.600     0.000   144.091    99.332   101.770     7.361    67.300     5.836   246.444     0.617     0.742     0.091     0.009     0.001     0.073   173.052     0.060     0.002 .00000E+00 0.000E+00 0.000E+00 0.000E+00 0.000E+00 0.000E+00
BIGSUB   1        0    3.16673E+00   222.800     0.000   167.289   129.265    54.891     0.000    39.274     0.000   132.161     0.017     0.035     0.004     0.000     0.000     0.003    92.770     0.002     0.000 .00000E+00 0.000E+00 0.000E+00 0.000E+00 0.000E+00 0.000E+00
BIGSUB   2        0    3.37378E+00   222.800     0.000   167.293   129.310    55.028     0.072    39.305     0.175   132.092     0.018     0.035     0.004     0.000     0.000     0.003    92.482     0.002     0.000 .00000E+00 0.000E+00 0.000E+00 0.000E+00 0.000E+00 0.000E+00
BIGSUB   3        0    3.15206E+00   222.800     0.000   167.273   128.233    52.305     0.088    42.110     0.215   135.507     0.034     0.066     0.008     0.000     0.000     0.007    93.134     0.002     0.000 .00000E+00 0.000E+00 0.000E+00 0.000E+00 0.000E+00 0.000E+00
BIGSUB   4        0    3.10363E+00   222.800     0.000   167.262   128.452    53.119     0.064    38.748     0.156   134.805     0.019     0.036     0.004     0.000     0.000     0.003    95.839     0.002     0.000 .00000E+00 0.000E+00 0.000E+00 0.000E+00 0.000E+00 0.000E+00
BIGSUB   5        0    3.15596E+00   222.800     0.000   167.279   128.135    51.927     0.087    43.654     0.212   135.804     0.036     0.079     0.010     0.000     0.000     0.008    91.893     0.002     0.000 .00000E+00 0.000E+00 0.000E+00 0.000E+00 0.000E+00 0.000E+00
BIGSUB   6        0    3.12004E+00   222.800     0.000   167.261   128.451    53.089     0.000    38.744     0.000   134.741     0.021     0.037     0.005     0.000     0.000     0.004    95.946     0.002     0.000 .00000E+00 0.000E+00 0.000E+00 0.000E+00 0.000E+00 0.000E+00
BIGSUB   7        0    3.11502E+00   222.800     0.000   167.218   128.404    53.115     0.000    38.754     0.000   134.765     0.026     0.039     0.005     0.000     0.000     0.004    95.964     0.002     0.000 .00000E+00 0.000E+00 0.000E+00 0.000E+00 0.000E+00 0.000E+00
BIGSUB   8        0    3.16827E-01   222.800     0.000   167.174   128.357    53.140     0.000    38.765     0.000   134.783     0.017     0.036     0.004     0.000     0.000     0.003    95.969     0.002     0.000 .00000E+00 0.000E+00 0.000E+00 0.000E+00 0.000E+00 0.000E+00
BIGSUB   9        0    3.33038E-01   222.800     0.000   167.225   129.296    55.374     0.413    39.395     1.003   132.280     0.013     0.032     0.004     0.000     0.001     0.003    91.709     0.002     0.000 .00000E+00 0.000E+00 0.000E+00 0.000E+00 0.000E+00 0.000E+00
BIGSUB  10        0    3.90496E-01   222.800     0.000   167.235   129.005    54.472     0.075    39.164     0.183   132.953     0.016     0.034     0.004     0.000     0.000     0.003    93.496     0.002     0.000 .00000E+00 0.000E+00 0.000E+00 0.000E+00 0.000E+00 0.000E+00
BIGSUB  11        0    3.22470E-01   222.800     0.000   167.187   128.371    53.133     0.000    38.762     0.000   134.779     0.020     0.037     0.005     0.000     0.000     0.004    95.970     0.002     0.000 .00000E+00 0.000E+00 0.000E+00 0.000E+00 0.000E+00 0.000E+00
BIGSUB  12        0    3.69667E-01   222.800     0.000   167.185   128.369    53.134     0.000    38.762     0.000   134.778     0.021     0.037     0.005     0.000     0.000     0.004    95.967     0.002     0.000 .00000E+00 0.000E+00 0.000E+00 0.000E+00 0.000E+00 0.000E+00
BIGSUB  13        0    3.25538E+00   222.800     0.000   167.165   129.600    66.139     1.979    35.781     6.167   137.230     0.036     0.052     0.006     0.002     0.001     0.005    94.974     0.008     0.001 .00000E+00 0.000E+00 0.000E+00 0.000E+00 0.000E+00 0.000E+00
BIGSUB   1        0    4.16673E+00   466.600     0.000   131.799   116.028    94.176     0.648    71.944     0.000   300.682     0.021     0.043     0.005     0.002     0.001     0.004   228.633     0.050     0.000 .00000E+00 0.000E+00 0.000E+00 0.000E+00 0.000E+00 0.000E+00
BIGSUB   2        0    4.37378E+00   466.600     0.000   131.797   116.054    94.175     1.046    72.354     0.143   300.520     0.023     0.044     0.005     0.002     0.001     0.004   227.906     0.050     0.000 .00000E+00 0.000E+00 0.000E+00 0.000E+00 0.000E+00 0.000E+00
BIGSUB   3        0    4.15206E+00   466.600     0.000   131.806   115.793    88.100     0.316    72.331     0.177   304.882     0.036     0.068     0.008     0.001     0.001     0.007   232.330     0.041     0.000 .00000E+00 0.000E+00 0.000E+00 0.000E+00 0.000E+00 0.000E+00
BIGSUB   4        0    4.10363E+00   466.600     0.000   131.811   115.560    90.027     0.229    65.720     0.128   303.790     0.022     0.041     0.005     0.002     0.001     0.004   237.886     0.049     0.000 .00000E+00 0.000E+00 0.000E+00 0.000E+00 0.000E+00 0.000E+00
BIGSUB   5        0    4.15596E+00   466.600     0.000   131.803   115.900    87.259     0.311    75.385     0.174   305.369     0.037     0.078     0.010     0.001     0.002     0.008   229.768     0.037     0.000 .00000E+00 0.000E+00 0.000E+00 0.000E+00 0.000E+00 0.000E+00
BIGSUB   6        0    4.12004E+00   466.600     0.000   131.811   115.561    89.918     0.000    65.659     0.000   303.934     0.024     0.042     0.005     0.002     0.001     0.004   238.229     0.049     0.000 .00000E+00 0.000E+00 0.000E+00 0.000E+00 0.000E+00 0.000E+00
BIGSUB   7        0    4.11502E+00   466.600     0.000   131.831   115.570    89.938     0.000    65.696     0.000   303.930     0.030     0.044     0.005     0.002     0.001     0.004   238.190     0.048     0.000 .00000E+00 0.000E+00 0.000E+00 0.000E+00 0.000E+00 0.000E+00
BIGSUB   8        0    4.16827E-01   466.600     0.000   131.851   115.577    89.958     0.000    65.732     0.000   303.931     0.020     0.040     0.005     0.002     0.001     0.004   238.153     0.049     0.000 .00000E+00 0.000E+00 0.000E+00 0.000E+00 0.000E+00 0.000E+00
BIGSUB   9        0    4.33038E-01   466.600     0.000   131.827   116.107    94.175     2.514    73.174     0.823   300.028     0.017     0.040     0.005     0.002     0.002     0.004   225.874     0.050     0.000 .00000E+00 0.000E+00 0.000E+00 0.000E+00 0.000E+00 0.000E+00
BIGSUB  10        0    4.90496E-01   466.600     0.000   131.823   115.924    94.178     0.309    70.322     0.150   301.012     0.020     0.041     0.005     0.002     0.002     0.004   230.441     0.049     0.000 .00000E+00 0.000E+00 0.000E+00 0.000E+00 0.000E+00 0.000E+00
BIGSUB  11        0    4.22470E-01   466.600     0.000   131.845   115.575    89.952     0.000    65.722     0.000   303.930     0.024     0.042     0.005     0.002     0.001     0.004   238.164     0.049     0.000 .00000E+00 0.000E+00 0.000E+00 0.000E+00 0.000E+00 0.000E+00
BIGSUB  12        0    4.69667E-01   466.600     0.000   131.846   115.575    89.953     0.000    65.724     0.000   303.931     0.024     0.042     0.005     0.002     0.001     0.004   238.162     0.049     0.000 .00000E+00 0.000E+00 0.000E+00 0.000E+00 0.000E+00 0.000E+00
BIGSUB  13        0    4.25538E+00   466.600     0.000   131.855   116.271   102.827     7.746    61.636     3.631   299.299     0.046     0.069     0.008     0.002     0.001     0.007   233.745     0.048     0.000 .00000E+00 0.000E+00 0.000E+00 0.000E+00 0.000E+00 0.000E+00
BIGSUB   1        0    5.16673E+00   221.200     0.000   141.213    77.764    91.882     0.956    42.330     0.000   153.949     0.024     0.043     0.005     0.005     0.002     0.004   111.526     0.131     0.000 .00000E+00 0.000E+00 0.000E+00 0.000E+00 0.000E+00 0.000E+00
BIGSUB   2        0    5.37378E+00   221.200     0.000   141.201    77.811    91.887     1.103    42.351     0.160   153.953     0.026     0.044     0.006     0.005     0.002     0.004   111.337     0.131     0.000 .00000E+00 0.000E+00 0.000E+00 0.000E+00 0.000E+00 0.000E+00
BIGSUB   3        0    5.15206E+00   221.200     0.000   141.258    82.609    83.478     0.119    39.325     0.197   152.369     0.032     0.047     0.006     0.004     0.001     0.004   112.808     0.106     0.000 .00000E+00 0.000E+00 0.000E+00 0.000E+00 0.000E+00 0.000E+00
BIGSUB   4        0    5.10363E+00   221.200     0.000   141.289    76.336    89.304     0.086    40.100     0.142   154.981     0.025     0.043     0.005     0.005     0.002     0.004   114.689     0.130     0.000 .00000E+00 0.000E+00 0.000E+00 0.000E+00 0.000E+00 0.000E+00
BIGSUB   5        0    5.15596E+00   221.200     0.000   141.240    85.502    80.860     0.117    38.991     0.194   151.125     0.029     0.047     0.006     0.004     0.001     0.004   111.903     0.096     0.000 .00000E+00 0.000E+00 0.000E+00 0.000E+00 0.000E+00 0.000E+00
BIGSUB   6        0    5.12004E+00   221.200     0.000   141.292    76.305    89.157     0.000    40.038     0.000   155.008     0.027     0.044     0.005     0.005     0.001     0.004   114.931     0.130     0.000 .00000E+00 0.000E+00 0.000E+00 0.000E+00 0.000E+00 0.000E+00
BIGSUB   7        0    5.11502E+00   221.200     0.000   141.413    76.342    89.154     0.000    40.043     0.000   154.991     0.034     0.046     0.006     0.005     0.001     0.004   114.911     0.130     0.000 .00000E+00 0.000E+00 0.000E+00 0.000E+00 0.000E+00 0.000E+00
BIGSUB   8        0    5.16827E-01   221.200     0.000   141.537    76.371    89.154     0.000    40.048     0.000   154.981     0.023     0.042     0.005     0.005     0.002     0.004   114.895     0.131     0.000 .00000E+00 0.000E+00 0.000E+00 0.000E+00 0.000E+00 0.000E+00
BIGSUB   9        0    5.33038E-01   221.200     0.000   141.392    77.972    91.889     1.638    42.408     0.918   154.105     0.019     0.040     0.005     0.005     0.002     0.004   110.631     0.131     0.000 .00000E+00 0.000E+00 0.000E+00 0.000E+00 0.000E+00 0.000E+00
BIGSUB  10        0    5.90496E-01   221.200     0.000   141.366    77.661    91.860     0.839    42.273     0.168   154.182     0.023     0.043     0.005     0.005     0.002     0.004   111.656     0.130     0.000 .00000E+00 0.000E+00 0.000E+00 0.000E+00 0.000E+00 0.000E+00
BIGSUB  11        0    5.22470E-01   221.200     0.000   141.500    76.363    89.154     0.000    40.047     0.000   154.983     0.027     0.044     0.005     0.005     0.001     0.004   114.900     0.130     0.000 .00000E+00 0.000E+00 0.000E+00 0.000E+00 0.000E+00 0.000E+00
BIGSUB  12        0    5.69667E-01   221.200     0.000   141.506    76.365    89.154     0.000    40.047     0.000   154.984     0.027     0.044     0.005     0.005     0.001     0.004   114.899     0.130     0.000 .00000E+00 0.000E+00 0.000E+00 0.000E+00 0.000E+00 0.000E+00
BIGSUB  13        0    5.25538E+00   221.200     0.000   141.562    77.643   101.762     3.256    37.408     4.798   155.979     0.044     0.053     0.007     0.005     0.001     0.005   113.481     0.128     0.000 .00000E+00 0.000E+00 0.000E+00 0.000E+00 0.000E+00 0.000E+00
BIGSUB   1        0    6.16673E+00   204.500     0.000   137.976    82.413    82.562     1.400    32.543     0.000   131.083     0.020     0.039     0.005     0.004     0.001     0.004    98.457     0.112     0.000 .00000E+00 0.000E+00 0.000E+00 0.000E+00 0.000E+00 0.000E+00
BIGSUB   2        0    6.37378E+00   204.500     0.000   137.962    82.466    82.574     1.541    32.552     0.145   131.036     0.021     0.040     0.005     0.004     0.001     0.004    98.245     0.112     0.000 .00000E+00 0.000E+00 0.000E+00 0.000E+00 0.000E+00 0.000E+00
BIGSUB   3        0    6.15206E+00   204.500     0.000   138.031    82.631    77.234     0.115    31.182     0.179   129.218     0.027     0.042     0.005     0.003     0.001     0.004    97.826     0.093     0.000 .00000E+00 0.000E+00 0.000E+00 0.000E+00 0.000E+00 0.000E+00
BIGSUB   4        0    6.10363E+00   204.500     0.000   138.068    81.530    81.997     0.083    31.578     0.129   131.384     0.021     0.040     0.005     0.004     0.001     0.004    99.638     0.108     0.000 .00000E+00 0.000E+00 0.000E+00 0.000E+00 0.000E+00 0.000E+00
BIGSUB   5        0    6.15596E+00   204.500     0.000   138.009    83.151    75.112     0.113    31.034     0.176   128.193     0.023     0.041     0.005     0.003     0.001     0.004    96.954     0.087     0.000 .00000E+00 0.000E+00 0.000E+00 0.000E+00 0.000E+00 0.000E+00
BIGSUB   6        0    6.12004E+00   204.500     0.000   138.071    81.481    81.839     0.000    31.502     0.000   131.389     0.023     0.041     0.005     0.004     0.001     0.004    99.858     0.108     0.000 .00000E+00 0.000E+00 0.000E+00 0.000E+00 0.000E+00 0.000E+00
BIGSUB   7        0    6.11502E+00   204.500     0.000   138.217    81.521    81.819     0.000    31.498     0.000   131.364     0.029     0.043     0.005     0.004     0.001     0.004    99.838     0.108     0.000 .00000E+00 0.000E+00 0.000E+00 0.000E+00 0.000E+00 0.000E+00
BIGSUB   8        0    6.16827E-01   204.500     0.000   138.365    81.557    81.804     0.000    31.496     0.000   131.345     0.019     0.039     0.005     0.004     0.001     0.004    99.821     0.109     0.000 .00000E+00 0.000E+00 0.000E+00 0.000E+00 0.000E+00 0.000E+00
BIGSUB   9        0    6.33038E-01   204.500     0.000   138.192    82.649    82.587     2.051    32.562     0.832   131.052     0.016     0.036     0.004     0.004     0.002     0.003    97.521     0.112     0.000 .00000E+00 0.000E+00 0.000E+00 0.000E+00 0.000E+00 0.000E+00
BIGSUB  10        0    6.90496E-01   204.500     0.000   138.160    82.284    82.519     1.285    32.507     0.152   131.499     0.019     0.039     0.005     0.004     0.001     0.004    98.766     0.112     0.000 .00000E+00 0.000E+00 0.000E+00 0.000E+00 0.000E+00 0.000E+00
BIGSUB  11        0    6.22470E-01   204.500     0.000   138.320    81.547    81.808     0.000    31.497     0.000   131.350     0.023     0.041     0.005     0.004     0.001     0.004    99.826     0.108     0.000 .00000E+00 0.000E+00 0.000E+00 0.000E+00 0.000E+00 0.000E+00
BIGSUB  12        0    6.69667E-01   204.500     0.000   138.328    81.549    81.807     0.000    31.496     0.000   131.350     0.023     0.041     0.005     0.004     0.001     0.004    99.825     0.108     0.000 .00000E+00 0.000E+00 0.000E+00 0.000E+00 0.000E+00 0.000E+00
BIGSUB  13        0    6.25538E+00   204.500     0.000   138.395    82.448    94.039     3.291    29.128     4.545   132.310     0.037     0.047     0.006     0.003     0.001     0.004    98.361     0.108     0.000 .00000E+00 0.000E+00 0.000E+00 0.000E+00 0.000E+00 0.000E+00
BIGSUB   1        0    7.16673E+00   729.100     0.000   111.547    64.694    95.718     5.734   448.719     0.000   627.578     1.126     2.059     0.254     0.012     0.019     0.192   178.775     0.276     0.000 .00000E+00 0.000E+00 0.000E+00 0.000E+00 0.000E+00 0.000E+00
BIGSUB   2        0    7.37378E+00   729.100     0.000   111.544    64.740    95.718     6.065   448.705     0.130   627.346     1.231     2.110     0.260     0.012     0.018     0.197   178.416     0.275     0.000 .00000E+00 0.000E+00 0.000E+00 0.000E+00 0.000E+00 0.000E+00
BIGSUB   3        0    7.15206E+00   729.100     0.000   111.560    63.260    93.243     2.762   450.898     0.160   629.479     1.532     2.157     0.267     0.015     0.018     0.204   178.393     0.272     0.000 .00000E+00 0.000E+00 0.000E+00 0.000E+00 0.000E+00 0.000E+00
BIGSUB   4        0    7.10363E+00   729.100     0.000   111.569    64.088    95.721     3.783   447.970     0.116   629.417     1.229     2.137     0.263     0.013     0.018     0.200   181.297     0.273     0.000 .00000E+00 0.000E+00 0.000E+00 0.000E+00 0.000E+00 0.000E+00
BIGSUB   5        0    7.15596E+00   729.100     0.000   111.555    62.876    92.101     2.553   452.327     0.157   629.391     1.308     2.053     0.255     0.015     0.019     0.195   176.880     0.271     0.000 .00000E+00 0.000E+00 0.000E+00 0.000E+00 0.000E+00 0.000E+00
BIGSUB   6        0    7.12004E+00   729.100     0.000   111.570    64.078    95.721     3.322   447.879     0.000   629.551     1.368     2.203     0.272     0.013     0.018     0.206   181.647     0.274     0.000 .00000E+00 0.000E+00 0.000E+00 0.000E+00 0.000E+00 0.000E+00
BIGSUB   7        0    7.11502E+00   729.100     0.000   111.604    64.085    95.723     3.092   447.862     0.000   629.702     1.704     2.309     0.285     0.013     0.016     0.216   181.816     0.273     0.000 .00000E+00 0.000E+00 0.000E+00 0.000E+00 0.000E+00 0.000E+00
BIGSUB   8        0    7.16827E-01   729.100     0.000   111.640    64.089    95.726     3.216   447.850     0.000   629.585     1.148     2.105     0.259     0.013     0.019     0.197   181.711     0.275     0.000 .00000E+00 0.000E+00 0.000E+00 0.000E+00 0.000E+00 0.000E+00
BIGSUB   9        0    7.33038E-01   729.100     0.000   111.598    64.854    95.722     7.232   448.437     0.746   626.536     0.903     1.923     0.237     0.012     0.021     0.179   177.216     0.275     0.000 .00000E+00 0.000E+00 0.000E+00 0.000E+00 0.000E+00 0.000E+00
BIGSUB  10        0    7.90496E-01   729.100     0.000   111.591    64.553    95.722     5.408   448.447     0.136   627.930     1.075     2.026     0.249     0.012     0.019     0.189   179.271     0.276     0.000 .00000E+00 0.000E+00 0.000E+00 0.000E+00 0.000E+00 0.000E+00
BIGSUB  11        0    7.22470E-01   729.100     0.000   111.629    64.088    95.725     3.117   447.853     0.000   629.668     1.353     2.197     0.271     0.013     0.018     0.206   181.791     0.274     0.000 .00000E+00 0.000E+00 0.000E+00 0.000E+00 0.000E+00 0.000E+00
BIGSUB  12        0    7.69667E-01   729.100     0.000   111.631    64.088    95.725     3.213   447.852     0.000   629.592     1.369     2.204     0.272     0.013     0.018     0.206   181.715     0.274     0.000 .00000E+00 0.000E+00 0.000E+00 0.000E+00 0.000E+00 0.000E+00
BIGSUB  13        0    7.25538E+00   729.100     0.000   111.647    64.984   107.832    11.381   432.945     3.912   623.209     2.025     2.315     0.286     0.012     0.019     0.217   186.079     0.275     0.001 .00000E+00 0.000E+00 0.000E+00 0.000E+00 0.000E+00 0.000E+00
BIGSUB   1        0    8.16673E+00   116.200     0.000   134.749    72.765    78.203     1.322     3.764     0.000    77.222     0.016     0.027     0.003     0.000     0.000     0.003    73.352     0.073     0.000 .00000E+00 0.000E+00 0.000E+00 0.000E+00 0.000E+00 0.000E+00
BIGSUB   2        0    8.37378E+00   116.200     0.000   134.750    72.817    78.250     1.384     3.807     0.134    77.218     0.017     0.027     0.003     0.000     0.000     0.003    73.159     0.072     0.000 .00000E+00 0.000E+00 0.000E+00 0.000E+00 0.000E+00 0.000E+00
BIGSUB   3        0    8.15206E+00   116.200     0.000   134.743    71.520    76.012     0.783     4.434     0.165    78.549     0.022     0.030     0.004     0.001     0.000     0.003    73.909     0.072     0.000 .00000E+00 0.000E+00 0.000E+00 0.000E+00 0.000E+00 0.000E+00
BIGSUB   4        0    8.10363E+00   116.200     0.000   134.739    72.103    77.566     1.061     3.750     0.120    79.038     0.017     0.028     0.003     0.001     0.000     0.003    75.116     0.073     0.000 .00000E+00 0.000E+00 0.000E+00 0.000E+00 0.000E+00 0.000E+00
BIGSUB   5        0    8.15596E+00   116.200     0.000   134.745    71.249    75.295     0.722     4.710     0.163    78.147     0.020     0.030     0.004     0.001     0.000     0.003    73.236     0.072     0.000 .00000E+00 0.000E+00 0.000E+00 0.000E+00 0.000E+00 0.000E+00
BIGSUB   6        0    8.12004E+00   116.200     0.000   134.739    72.096    77.557     0.965     3.745     0.000    79.073     0.019     0.028     0.003     0.001     0.000     0.003    75.286     0.073     0.000 .00000E+00 0.000E+00 0.000E+00 0.000E+00 0.000E+00 0.000E+00
BIGSUB   7        0    8.11502E+00   116.200     0.000   134.723    72.090    77.556     0.900     3.746     0.000    79.193     0.024     0.030     0.004     0.000     0.000     0.003    75.408     0.073     0.000 .00000E+00 0.000E+00 0.000E+00 0.000E+00 0.000E+00 0.000E+00
BIGSUB   8        0    8.16827E-01   116.200     0.000   134.708    72.081    77.557     0.937     3.747     0.000    79.140     0.016     0.027     0.003     0.001     0.000     0.003    75.353     0.074     0.000 .00000E+00 0.000E+00 0.000E+00 0.000E+00 0.000E+00 0.000E+00
BIGSUB   9        0    8.33038E-01   116.200     0.000   134.726    72.914    78.355     1.622     4.127     0.770    77.661     0.013     0.025     0.003     0.000     0.000     0.002    72.605     0.072     0.000 .00000E+00 0.000E+00 0.000E+00 0.000E+00 0.000E+00 0.000E+00
BIGSUB  10        0    8.90496E-01   116.200     0.000   134.729    72.590    78.047     1.289     3.915     0.141    77.910     0.015     0.026     0.003     0.000     0.000     0.002    73.757     0.073     0.000 .00000E+00 0.000E+00 0.000E+00 0.000E+00 0.000E+00 0.000E+00
BIGSUB  11        0    8.22470E-01   116.200     0.000   134.712    72.084    77.556     0.908     3.746     0.000    79.186     0.019     0.028     0.003     0.001     0.000     0.003    75.400     0.074     0.000 .00000E+00 0.000E+00 0.000E+00 0.000E+00 0.000E+00 0.000E+00
BIGSUB  12        0    8.69667E-01   116.200     0.000   134.712    72.083    77.556     0.936     3.746     0.000    79.139     0.019     0.028     0.004     0.001     0.000     0.003    75.352     0.074     0.000 .00000E+00 0.000E+00 0.000E+00 0.000E+00 0.000E+00 0.000E+00
BIGSUB  13        0    8.25538E+00   116.200     0.000   134.704    73.421    89.865     2.116     3.829     5.097    83.409     0.029     0.027     0.003     0.000     0.000     0.003    74.189     0.071     0.001 .00000E+00 0.000E+00 0.000E+00 0.000E+00 0.000E+00 0.000E+00
BIGSUB   1        0    9.16673E+00   109.600     0.000   137.891    56.254    76.050     0.000     8.925     0.000    56.092     0.117     0.200     0.025     0.002     0.000     0.019    47.060     0.056     0.000 .00000E+00 0.000E+00 0.000E+00 0.000E+00 0.000E+00 0.000E+00
BIGSUB   2        0    9.37378E+00   109.600     0.000   137.902    56.338    76.136     0.034     8.939     0.070    56.012     0.128     0.204     0.025     0.001     0.000     0.019    46.886     0.056     0.000 .00000E+00 0.000E+00 0.000E+00 0.000E+00 0.000E+00 0.000E+00
BIGSUB   3        0    9.15206E+00   109.600     0.000   137.849    54.679    73.318     0.042     9.837     0.086    58.218     0.159     0.211     0.026     0.002     0.000     0.020    48.250     0.058     0.000 .00000E+00 0.000E+00 0.000E+00 0.000E+00 0.000E+00 0.000E+00
BIGSUB   4        0    9.10363E+00   109.600     0.000   137.821    55.081    74.788     0.030     8.759     0.062    57.900     0.125     0.203     0.025     0.002     0.000     0.019    49.021     0.057     0.000 .00000E+00 0.000E+00 0.000E+00 0.000E+00 0.000E+00 0.000E+00
BIGSUB   5        0    9.15596E+00   109.600     0.000   137.866    54.492    72.638     0.041    10.333     0.085    58.364     0.138     0.206     0.025     0.002     0.000     0.020    47.904     0.059     0.000 .00000E+00 0.000E+00 0.000E+00 0.000E+00 0.000E+00 0.000E+00
BIGSUB   6        0    9.12004E+00   109.600     0.000   137.819    55.072    74.775     0.000     8.754     0.000    57.872     0.139     0.209     0.026     0.002     0.000     0.020    49.069     0.057     0.000 .00000E+00 0.000E+00 0.000E+00 0.000E+00 0.000E+00 0.000E+00
BIGSUB   7        0    9.11502E+00   109.600     0.000   137.709    55.041    74.797     0.000     8.758     0.000    57.877     0.174     0.217     0.027     0.002     0.000     0.021    49.073     0.056     0.000 .00000E+00 0.000E+00 0.000E+00 0.000E+00 0.000E+00 0.000E+00
BIGSUB   8        0    9.16827E-01   109.600     0.000   137.597    55.009    74.821     0.000     8.762     0.000    57.887     0.117     0.201     0.025     0.002     0.000     0.019    49.078     0.057     0.000 .00000E+00 0.000E+00 0.000E+00 0.000E+00 0.000E+00 0.000E+00
BIGSUB   9        0    9.33038E-01   109.600     0.000   137.728    56.449    76.356     0.197     8.984     0.405    55.989     0.094     0.188     0.023     0.002     0.000     0.018    46.446     0.056     0.000 .00000E+00 0.000E+00 0.000E+00 0.000E+00 0.000E+00 0.000E+00
BIGSUB  10        0    9.90496E-01   109.600     0.000   137.752    55.920    75.762     0.036     8.890     0.074    56.593     0.111     0.196     0.024     0.002     0.000     0.018    47.530     0.056     0.000 .00000E+00 0.000E+00 0.000E+00 0.000E+00 0.000E+00 0.000E+00
BIGSUB  11        0    9.22470E-01   109.600     0.000   137.630    55.019    74.814     0.000     8.761     0.000    57.883     0.138     0.209     0.026     0.002     0.000     0.020    49.076     0.057     0.000 .00000E+00 0.000E+00 0.000E+00 0.000E+00 0.000E+00 0.000E+00
BIGSUB  12        0    9.69667E-01   109.600     0.000   137.625    55.017    74.815     0.000     8.761     0.000    57.885     0.140     0.209     0.026     0.002     0.000     0.020    49.076     0.057     0.000 .00000E+00 0.000E+00 0.000E+00 0.000E+00 0.000E+00 0.000E+00
BIGSUB  13        0    9.25538E+00   109.600     0.000   137.574    56.424    87.591     0.566     8.030     2.340    57.964     0.202     0.187     0.023     0.001     0.000     0.018    47.323     0.055     0.000 .00000E+00 0.000E+00 0.000E+00 0.000E+00 0.000E+00 0.000E+00
BIGSUB   1        0   10.16673E+00    90.500     0.000   176.701    51.058    66.403     0.000     9.348     0.000    48.967     0.170     0.316     0.039     0.005     0.000     0.030    39.525     0.050     0.000 .00000E+00 0.000E+00 0.000E+00 0.000E+00 0.000E+00 0.000E+00
[...]
BIGSUB   7        0    9.11502E+00   167.200     0.000   114.451    71.333    70.756     0.000    10.084     0.000    93.596     0.137     0.305     0.037     0.001     0.000     0.029    83.445     0.127     0.000 .00000E+00 0.000E+00 0.000E+00 0.000E+00 0.000E+00 0.000E+00
BIGSUB   8        0    9.16827E-01   167.200     0.000   114.269    71.267    70.774     0.000    10.080     0.000    93.627     0.092     0.237     0.029     0.001     0.000     0.022    83.477     0.128     0.000 .00000E+00 0.000E+00 0.000E+00 0.000E+00 0.000E+00 0.000E+00
BIGSUB   9        0    9.33038E-01   167.200     0.000   114.482    72.281    74.325     0.418    10.724     0.304    91.046     0.076     0.217     0.027     0.001     0.001     0.020    79.869     0.126     0.000 .00000E+00 0.000E+00 0.000E+00 0.000E+00 0.000E+00 0.000E+00
BIGSUB  10        0    9.90496E-01   167.200     0.000   114.521    71.922    72.937     0.076    10.456     0.055    92.020     0.090     0.235     0.029     0.001     0.000     0.022    81.398     0.127     0.000 .00000E+00 0.000E+00 0.000E+00 0.000E+00 0.000E+00 0.000E+00
BIGSUB  11        0    9.22470E-01   167.200     0.000   114.324    71.287    70.769     0.000    10.081     0.000    93.617     0.109     0.262     0.032     0.001     0.000     0.025    83.467     0.128     0.000 .00000E+00 0.000E+00 0.000E+00 0.000E+00 0.000E+00 0.000E+00
BIGSUB  12        0    9.69667E-01   167.200     0.000   114.315    71.284    70.770     0.000    10.081     0.000    93.620     0.110     0.263     0.032     0.001     0.000     0.025    83.469     0.128     0.000 .00000E+00 0.000E+00 0.000E+00 0.000E+00 0.000E+00 0.000E+00
BIGSUB  13        0    9.25538E+00   167.200     0.000   114.232    72.470    85.264     1.426     9.386     0.919    90.868     0.160     0.332     0.041     0.001     0.000     0.031    80.335     0.125     0.000 .00000E+00 0.000E+00 0.000E+00 0.000E+00 0.000E+00 0.000E+00
BIGSUB   1        0   10.16673E+00   159.000     0.000   160.061    79.856    75.451     0.000     2.932     0.000    72.928     0.040     0.084     0.010     0.001     0.000     0.008    69.907     0.075     0.000 .00000E+00 0.000E+00 0.000E+00 0.000E+00 0.000E+00 0.000E+00
BIGSUB   2        0   10.37378E+00   159.000     0.000   160.076    79.976    75.658     0.059     2.973     0.053    72.805     0.045     0.090     0.011     0.001     0.000     0.008    69.684     0.075     0.000 .00000E+00 0.000E+00 0.000E+00 0.000E+00 0.000E+00 0.000E+00
BIGSUB   3        0   10.15206E+00   159.000     0.000   160.003    77.752    69.579     0.073     2.929     0.065    75.175     0.048     0.086     0.011     0.001     0.000     0.008    72.130     0.073     0.000 .00000E+00 0.000E+00 0.000E+00 0.000E+00 0.000E+00 0.000E+00
BIGSUB   4        0   10.10363E+00   159.000     0.000   159.963    78.191    72.111     0.053     2.393     0.047    74.965     0.035     0.070     0.009     0.001     0.000     0.007    72.462     0.072     0.000 .00000E+00 0.000E+00 0.000E+00 0.000E+00 0.000E+00 0.000E+00
BIGSUB   5        0   10.15596E+00   159.000     0.000   160.026    77.549    68.423     0.072     3.177     0.064    75.281     0.045     0.084     0.010     0.002     0.000     0.008    71.990     0.074     0.000 .00000E+00 0.000E+00 0.000E+00 0.000E+00 0.000E+00 0.000E+00
BIGSUB   6        0   10.12004E+00   159.000     0.000   159.960    78.172    72.056     0.000     2.381     0.000    74.974     0.038     0.074     0.009     0.001     0.000     0.007    72.536     0.072     0.000 .00000E+00 0.000E+00 0.000E+00 0.000E+00 0.000E+00 0.000E+00
BIGSUB   7        0   10.11502E+00   159.000     0.000   159.805    78.166    72.068     0.000     2.384     0.000    74.978     0.048     0.084     0.010     0.001     0.000     0.008    72.542     0.071     0.000 .00000E+00 0.000E+00 0.000E+00 0.000E+00 0.000E+00 0.000E+00
BIGSUB   8        0   10.16827E-01   159.000     0.000   159.647    78.160    72.083     0.000     2.386     0.000    74.989     0.032     0.067     0.008     0.001     0.000     0.006    72.548     0.072     0.000 .00000E+00 0.000E+00 0.000E+00 0.000E+00 0.000E+00 0.000E+00
BIGSUB   9        0   10.33038E-01   159.000     0.000   159.832    80.208    76.078     0.343     3.060     0.304    72.581     0.034     0.077     0.009     0.001     0.000     0.007    69.097     0.076     0.000 .00000E+00 0.000E+00 0.000E+00 0.000E+00 0.000E+00 0.000E+00
BIGSUB  10        0   10.90496E-01   159.000     0.000   159.865    79.423    74.694     0.063     2.788     0.056    73.381     0.036     0.077     0.009     0.001     0.000     0.007    70.452     0.073     0.000 .00000E+00 0.000E+00 0.000E+00 0.000E+00 0.000E+00 0.000E+00
BIGSUB  11        0   10.22470E-01   159.000     0.000   159.694    78.162    72.079     0.000     2.385     0.000    74.984     0.038     0.074     0.009     0.001     0.000     0.007    72.546     0.072     0.000 .00000E+00 0.000E+00 0.000E+00 0.000E+00 0.000E+00 0.000E+00
BIGSUB  12        0   10.69667E-01   159.000     0.000   159.687    78.162    72.079     0.000     2.386     0.000    74.986     0.039     0.075     0.009     0.001     0.000     0.007    72.546     0.072     0.000 .00000E+00 0.000E+00 0.000E+00 0.000E+00 0.000E+00 0.000E+00
BIGSUB  13        0   10.25538E+00   159.000     0.000   159.615    80.140    86.845     1.086     2.409     0.950    72.790     0.057     0.087     0.011     0.001     0.000     0.008    69.242     0.073     0.000 .00000E+00 0.000E+00 0.000E+00 0.000E+00 0.000E+00 0.000E+00
BIGSUB   1        0   11.16673E+00   334.500     0.000   145.203    82.925    77.201     0.000   101.840     0.000   254.686     2.408     5.516     0.675     0.005     0.004     0.523   152.782     0.306     0.000 .00000E+00 0.000E+00 0.000E+00 0.000E+00 0.000E+00 0.000E+00
BIGSUB   2        0   11.37378E+00   334.500     0.000   145.211    83.007    77.493     0.148   102.155     0.072   254.448     2.637     5.719     0.700     0.005     0.004     0.543   152.151     0.304     0.000 .00000E+00 0.000E+00 0.000E+00 0.000E+00 0.000E+00 0.000E+00
BIGSUB   3        0   11.15206E+00   334.500     0.000   145.172    81.162    69.939     0.182   100.569     0.089   257.737     3.201     5.909     0.724     0.006     0.004     0.561   157.041     0.313     0.000 .00000E+00 0.000E+00 0.000E+00 0.000E+00 0.000E+00 0.000E+00
BIGSUB   4        0   11.10363E+00   334.500     0.000   145.151    81.630    72.608     0.132    97.181     0.064   257.209     2.506     5.482     0.671     0.005     0.004     0.521   159.917     0.319     0.000 .00000E+00 0.000E+00 0.000E+00 0.000E+00 0.000E+00 0.000E+00
BIGSUB   5        0   11.15596E+00   334.500     0.000   145.184    80.954    68.769     0.179   102.168     0.088   257.941     2.797     5.565     0.682     0.006     0.004     0.527   155.649     0.310     0.000 .00000E+00 0.000E+00 0.000E+00 0.000E+00 0.000E+00 0.000E+00
BIGSUB   6        0   11.12004E+00   334.500     0.000   145.150    81.605    72.464     0.000    97.066     0.000   257.390     2.781     5.721     0.700     0.005     0.004     0.544   160.284     0.321     0.000 .00000E+00 0.000E+00 0.000E+00 0.000E+00 0.000E+00 0.000E+00
BIGSUB   7        0   11.11502E+00   334.500     0.000   145.068    81.586    72.476     0.000    97.064     0.000   257.406     3.460     6.221     0.762     0.005     0.003     0.593   160.305     0.320     0.000 .00000E+00 0.000E+00 0.000E+00 0.000E+00 0.000E+00 0.000E+00
BIGSUB   8        0   11.16827E-01   334.500     0.000   144.986    81.566    72.491     0.000    97.065     0.000   257.428     2.334     5.331     0.653     0.006     0.004     0.506   160.324     0.322     0.000 .00000E+00 0.000E+00 0.000E+00 0.000E+00 0.000E+00 0.000E+00
BIGSUB   9        0   11.33038E-01   334.500     0.000   145.082    83.124    78.030     0.850   102.754     0.416   253.871     1.943     5.108     0.625     0.005     0.004     0.483   150.611     0.302     0.000 .00000E+00 0.000E+00 0.000E+00 0.000E+00 0.000E+00 0.000E+00
BIGSUB  10        0   11.90496E-01   334.500     0.000   145.100    82.598    76.011     0.155   100.617     0.076   255.343     2.280     5.370     0.657     0.005     0.004     0.509   154.588     0.311     0.000 .00000E+00 0.000E+00 0.000E+00 0.000E+00 0.000E+00 0.000E+00
BIGSUB  11        0   11.22470E-01   334.500     0.000   145.011    81.572    72.487     0.000    97.065     0.000   257.421     2.750     5.694     0.697     0.005     0.004     0.541   160.318     0.321     0.000 .00000E+00 0.000E+00 0.000E+00 0.000E+00 0.000E+00 0.000E+00
BIGSUB  12        0   11.69667E-01   334.500     0.000   145.007    81.571    72.487     0.000    97.065     0.000   257.423     2.783     5.722     0.700     0.005     0.004     0.544   160.319     0.321     0.000 .00000E+00 0.000E+00 0.000E+00 0.000E+00 0.000E+00 0.000E+00
BIGSUB  13        0   11.25538E+00   334.500     0.000   144.969    82.762    86.345     5.127    92.950     1.385   253.445     4.041     6.513     0.797     0.005     0.004     0.619   158.951     0.321     0.001 .00000E+00 0.000E+00 0.000E+00 0.000E+00 0.000E+00 0.000E+00
BIGSUB   1        0   12.16673E+00   398.800     0.000   134.410    88.503    90.342     3.949    86.014     0.000   290.098     5.070     7.684     0.940     0.004     0.003     0.731   204.034     0.334     0.000 .00000E+00 0.000E+00 0.000E+00 0.000E+00 0.000E+00 0.000E+00
BIGSUB   2        0   12.37378E+00   398.800     0.000   134.422    88.578    90.343     4.373    86.299     0.102   290.002     5.538     7.836     0.959     0.003     0.003     0.746   203.544     0.335     0.000 .00000E+00 0.000E+00 0.000E+00 0.000E+00 0.000E+00 0.000E+00
BIGSUB   3        0   12.15206E+00   398.800     0.000   134.364    86.973    88.051     0.815    84.484     0.126   289.967     6.988     8.206     1.005     0.004     0.003     0.780   205.326     0.302     0.000 .00000E+00 0.000E+00 0.000E+00 0.000E+00 0.000E+00 0.000E+00
BIGSUB   4        0   12.10363E+00   398.800     0.000   134.334    87.463    90.332     1.048    80.444     0.091   289.509     5.271     7.509     0.919     0.003     0.003     0.715   208.937     0.306     0.000 .00000E+00 0.000E+00 0.000E+00 0.000E+00 0.000E+00 0.000E+00
BIGSUB   5        0   12.15596E+00   398.800     0.000   134.383    86.760    86.999     0.765    86.464     0.124   290.156     6.286     8.042     0.985     0.004     0.003     0.762   203.538     0.300     0.000 .00000E+00 0.000E+00 0.000E+00 0.000E+00 0.000E+00 0.000E+00
BIGSUB   6        0   12.12004E+00   398.800     0.000   134.331    87.427    90.332     0.721    80.173     0.000   289.635     5.832     7.676     0.939     0.003     0.002     0.732   209.431     0.307     0.000 .00000E+00 0.000E+00 0.000E+00 0.000E+00 0.000E+00 0.000E+00
BIGSUB   7        0   12.11502E+00   398.800     0.000   134.210    87.384    90.327     0.679    80.207     0.000   289.728     7.261     8.149     0.997     0.003     0.002     0.779   209.492     0.306     0.000 .00000E+00 0.000E+00 0.000E+00 0.000E+00 0.000E+00 0.000E+00
BIGSUB   8        0   12.16827E-01   398.800     0.000   134.086    87.339    90.323     0.716    80.243     0.000   289.759     4.905     7.381     0.903     0.003     0.003     0.702   209.485     0.308     0.000 .00000E+00 0.000E+00 0.000E+00 0.000E+00 0.000E+00 0.000E+00
BIGSUB   9        0   12.33038E-01   398.800     0.000   134.231    88.646    90.337     5.774    86.830     0.588   289.594     4.079     7.349     0.899     0.004     0.003     0.696   202.096     0.338     0.000 .00000E+00 0.000E+00 0.000E+00 0.000E+00 0.000E+00 0.000E+00
BIGSUB  10        0   12.90496E-01   398.800     0.000   134.257    88.188    90.334     3.328    84.843     0.107   289.944     4.832     7.564     0.925     0.004     0.003     0.719   204.944     0.327     0.000 .00000E+00 0.000E+00 0.000E+00 0.000E+00 0.000E+00 0.000E+00
BIGSUB  11        0   12.22470E-01   398.800     0.000   134.123    87.353    90.324     0.691    80.232     0.000   289.761     5.777     7.663     0.937     0.003     0.002     0.730   209.500     0.307     0.000 .00000E+00 0.000E+00 0.000E+00 0.000E+00 0.000E+00 0.000E+00
BIGSUB  12        0   12.69667E-01   398.800     0.000   134.117    87.351    90.324     0.713    80.234     0.000   289.745     5.845     7.685     0.940     0.003     0.002     0.733   209.482     0.307     0.000 .00000E+00 0.000E+00 0.000E+00 0.000E+00 0.000E+00 0.000E+00
BIGSUB  13        0   12.25538E+00   398.800     0.000   134.061    88.332   102.398     9.083    73.707     2.238   284.431     8.381     8.004     0.979     0.003     0.003     0.763   208.317     0.318     0.001 .00000E+00 0.000E+00 0.000E+00 0.000E+00 0.000E+00 0.000E+00
BIGSUB   1        0 2016.16673E+00  3003.700     0.000  1726.309   836.380    90.342    24.876   752.653     0.000  2150.583     8.258    14.956     1.830     0.037     0.023     1.421  1396.363     1.290     0.000 .00000E+00 0.000E+00 0.000E+00 0.000E+00 0.000E+00 0.000E+00
BIGSUB   2        0 2016.37378E+00  3003.700     0.000  1726.322   837.011    90.343    26.854   754.003     1.361  2149.446     9.027    15.393     1.884     0.037     0.022     1.465  1392.405     1.288     0.000 .00000E+00 0.000E+00 0.000E+00 0.000E+00 0.000E+00 0.000E+00
BIGSUB   3        0 2016.15206E+00  3003.700     0.000  1726.260   829.453    88.051    13.230   768.929     1.676  2172.383    11.381    16.450     2.015     0.038     0.021     1.563  1400.933     1.215     0.000 .00000E+00 0.000E+00 0.000E+00 0.000E+00 0.000E+00 0.000E+00
BIGSUB   4        0 2016.10363E+00  3003.700     0.000  1726.227   827.311    90.332    16.254   731.441     1.212  2169.039     8.605    14.791     1.810     0.039     0.022     1.407  1435.326     1.260     0.000 .00000E+00 0.000E+00 0.000E+00 0.000E+00 0.000E+00 0.000E+00
BIGSUB   5        0 2016.15596E+00  3003.700     0.000  1726.280   830.443    86.999    12.766   786.401     1.648  2172.789    10.211    15.920     1.951     0.038     0.022     1.508  1383.930     1.196     0.000 .00000E+00 0.000E+00 0.000E+00 0.000E+00 0.000E+00 0.000E+00
BIGSUB   6        0 2016.12004E+00  3003.700     0.000  1726.223   827.177    90.332    14.062   730.842     0.000  2170.047     9.532    15.302     1.873     0.039     0.021     1.458  1438.274     1.264     0.000 .00000E+00 0.000E+00 0.000E+00 0.000E+00 0.000E+00 0.000E+00
BIGSUB   7        0 2016.11502E+00  3003.700     0.000  1726.091   827.066    90.327    13.123   730.895     0.000  2171.051    11.865    16.533     2.023     0.038     0.020     1.578  1439.288     1.261     0.000 .00000E+00 0.000E+00 0.000E+00 0.000E+00 0.000E+00 0.000E+00
BIGSUB   8        0 2016.16827E-01  3003.700     0.000  1725.954   826.927    90.323    13.679   730.961     0.000  2170.672     8.012    14.451     1.768     0.039     0.022     1.374  1438.807     1.269     0.000 .00000E+00 0.000E+00 0.000E+00 0.000E+00 0.000E+00 0.000E+00
BIGSUB   9        0 2016.33038E-01  3003.700     0.000  1726.114   838.086    90.337    34.333   756.458     7.815  2147.770     6.650    14.037     1.717     0.037     0.026     1.330  1381.410     1.291     0.001 .00000E+00 0.000E+00 0.000E+00 0.000E+00 0.000E+00 0.000E+00
BIGSUB  10        0 2016.90496E-01  3003.700     0.000  1726.143   834.084    90.334    23.648   747.505     1.427  2155.506     7.854    14.643     1.792     0.038     0.023     1.391  1405.083     1.283     0.000 .00000E+00 0.000E+00 0.000E+00 0.000E+00 0.000E+00 0.000E+00
BIGSUB  11        0 2016.22470E-01  3003.700     0.000  1725.995   826.971    90.324    13.248   730.940     0.000  2171.032     9.437    15.252     1.866     0.039     0.021     1.453  1439.217     1.265     0.000 .00000E+00 0.000E+00 0.000E+00 0.000E+00 0.000E+00 0.000E+00
BIGSUB  12        0 2016.69667E-01  3003.700     0.000  1725.989   826.965    90.324    13.659   730.943     0.000  2170.650     9.548    15.313     1.874     0.039     0.021     1.459  1438.804     1.265     0.000 .00000E+00 0.000E+00 0.000E+00 0.000E+00 0.000E+00 0.000E+00
BIGSUB  13        0 2016.25538E+00  3003.700     0.000  1725.926   841.089   102.398    57.391   687.857    43.958  2159.419    13.785    16.940     2.072     0.038     0.024     1.613  1424.229     1.325     0.007 .00000E+00 0.000E+00 0.000E+00 0.000E+00 0.000E+00 0.000E+00
BIGSUB   1        0  4.0.16673E+00  3445.525     0.000  1685.157   927.124    90.342    25.813   918.521     0.000  2492.190    25.478    41.964     5.133     0.036     0.031     4.059  1572.335     1.655     0.000 .00000E+00 0.000E+00 0.000E+00 0.000E+00 0.000E+00 0.000E+00
BIGSUB   2        0  4.0.37378E+00  3445.525     0.000  1685.142   927.737    90.343    28.115   919.768     1.432  2490.834    27.812    42.239     5.167     0.036     0.030     4.093  1568.183     1.653     0.000 .00000E+00 0.000E+00 0.000E+00 0.000E+00 0.000E+00 0.000E+00
BIGSUB   3        0  4.0.15206E+00  3445.525     0.000  1685.210   918.997    88.051    12.820   937.808     1.764  2514.833    35.603    43.795     5.383     0.042     0.032     4.310  1574.594     1.556     0.000 .00000E+00 0.000E+00 0.000E+00 0.000E+00 0.000E+00 0.000E+00
BIGSUB   4        0  4.0.10363E+00  3445.525     0.000  1685.246   917.435    90.332    15.956   894.555     1.275  2512.396    27.504    42.098     5.150     0.038     0.029     4.081  1615.734     1.613     0.000 .00000E+00 0.000E+00 0.000E+00 0.000E+00 0.000E+00 0.000E+00
BIGSUB   5        0  4.0.15596E+00  3445.525     0.000  1685.189   919.754    86.999    12.249   958.068     1.735  2514.836    31.408    44.067     5.427     0.044     0.036     4.348  1554.398     1.530     0.000 .00000E+00 0.000E+00 0.000E+00 0.000E+00 0.000E+00 0.000E+00
BIGSUB   6        0  4.0.12004E+00  3445.525     0.000  1685.250   917.227    90.332    13.593   893.676     0.000  2513.570    30.525    42.446     5.193     0.037     0.028     4.123  1619.183     1.619     0.000 .00000E+00 0.000E+00 0.000E+00 0.000E+00 0.000E+00 0.000E+00
BIGSUB   7        0  4.0.11502E+00  3445.525     0.000  1685.391   917.208    90.327    12.675   893.677     0.000  2514.460    37.977    42.990     5.260     0.037     0.025     4.193  1620.120     1.618     0.000 .00000E+00 0.000E+00 0.000E+00 0.000E+00 0.000E+00 0.000E+00
BIGSUB   8        0  4.0.16827E-01  3445.525     0.000  1685.533   917.163    90.323    13.204   893.693     0.000  2514.006    25.638    41.888     5.124     0.038     0.030     4.055  1619.624     1.627     0.000 .00000E+00 0.000E+00 0.000E+00 0.000E+00 0.000E+00 0.000E+00
BIGSUB   9        0  4.0.33038E-01  3445.525     0.000  1685.367   928.927    90.337    36.690   922.130     8.224  2488.322    20.435    40.914     5.004     0.036     0.036     3.940  1556.083     1.658     0.002 .00000E+00 0.000E+00 0.000E+00 0.000E+00 0.000E+00 0.000E+00
BIGSUB  10        0  4.0.90496E-01  3445.525     0.000  1685.336   924.912    90.334    24.245   913.600     1.502  2497.366    24.383    41.736     5.105     0.037     0.032     4.034  1581.009     1.645     0.000 .00000E+00 0.000E+00 0.000E+00 0.000E+00 0.000E+00 0.000E+00
BIGSUB  11        0  4.0.22470E-01  3445.525     0.000  1685.490   917.179    90.324    12.791   893.687     0.000  2514.382    30.202    42.413     5.189     0.037     0.028     4.119  1620.026     1.624     0.000 .00000E+00 0.000E+00 0.000E+00 0.000E+00 0.000E+00 0.000E+00
BIGSUB  12        0  4.0.69667E-01  3445.525     0.000  1685.497   917.177    90.324    13.187   893.687     0.000  2514.008    30.557    42.447     5.193     0.037     0.028     4.123  1619.631     1.622     0.000 .00000E+00 0.000E+00 0.000E+00 0.000E+00 0.000E+00 0.000E+00
BIGSUB  13        0  4.0.25538E+00  3445.525     0.000  1685.562   931.331   102.398    63.985   842.422    45.122  2496.807    44.129    40.728     4.983     0.039     0.030     3.965  1606.000     1.668     0.010 .00000E+00 0.000E+00 0.000E+00 0.000E+00 0.000E+00 0.000E+00
