1
    SWAT Dec 23 2016    VER 2016/Rev 664                                                                 0/ 0/   0      0: 0: 0

    General Input/Output section (file.cio):                                        
    2/7/2020 21:40:57 QSWAT Workflow v1.5.2                                         
                                                                                    
         Number of years in run:   12
         Area of watershed:        1.675 km2
1
    SWAT Dec 23 2016    VER 2016/Rev 664                                            

    General Input/Output section (file.cio):                                        
    2/7/2020 21:40:57 QSWAT Workflow v1.5.2                                         
                                                                                    
Annual Summary for Watershed in year    1 of simulation

UNIT                                    PERCO    TILE                           WATER     SED     NO3     NO3     NO3     NO3        N       P       P
TIME     PREC    SURQ    LATQ     GWQ    LATE       Q     SW       ET     PET   YIELD   YIELD    SURQ    LATQ    PERC    CROP  ORGANIC SOLUBLE ORGANIC TILENO3
         (mm)    (mm)    (mm)    (mm)    (mm)    (mm)    (mm)    (mm)    (mm)    (mm)   (t/ha)  ------------------(kg nutrient/ha)-------------------- (kg/ha)
1
    SWAT Dec 23 2016    VER 2016/Rev 664                                            

    General Input/Output section (file.cio):                                        
    2/7/2020 21:40:57 QSWAT Workflow v1.5.2                                         
                                                                                    
Annual Summary for Watershed in year    2 of simulation

UNIT                                    PERCO    TILE                           WATER     SED     NO3     NO3     NO3     NO3        N       P       P
TIME     PREC    SURQ    LATQ     GWQ    LATE       Q     SW       ET     PET   YIELD   YIELD    SURQ    LATQ    PERC    CROP  ORGANIC SOLUBLE ORGANIC TILENO3
         (mm)    (mm)    (mm)    (mm)    (mm)    (mm)    (mm)    (mm)    (mm)    (mm)   (t/ha)  ------------------(kg nutrient/ha)-------------------- (kg/ha)
1
    SWAT Dec 23 2016    VER 2016/Rev 664                                            

    General Input/Output section (file.cio):                                        
    2/7/2020 21:40:57 QSWAT Workflow v1.5.2                                         
                                                                                    
Annual Summary for Watershed in year    3 of simulation

UNIT                                    PERCO    TILE                           WATER     SED     NO3     NO3     NO3     NO3        N       P       P
TIME     PREC    SURQ    LATQ     GWQ    LATE       Q     SW       ET     PET   YIELD   YIELD    SURQ    LATQ    PERC    CROP  ORGANIC SOLUBLE ORGANIC TILENO3
         (mm)    (mm)    (mm)    (mm)    (mm)    (mm)    (mm)    (mm)    (mm)    (mm)   (t/ha)  ------------------(kg nutrient/ha)-------------------- (kg/ha)
1
    SWAT Dec 23 2016    VER 2016/Rev 664                                            

    General Input/Output section (file.cio):                                        
    2/7/2020 21:40:57 QSWAT Workflow v1.5.2                                         
                                                                                    
Annual Summary for Watershed in year    4 of simulation

UNIT                                    PERCO    TILE                           WATER     SED     NO3     NO3     NO3     NO3        N       P       P
TIME     PREC    SURQ    LATQ     GWQ    LATE       Q     SW       ET     PET   YIELD   YIELD    SURQ    LATQ    PERC    CROP  ORGANIC SOLUBLE ORGANIC TILENO3
         (mm)    (mm)    (mm)    (mm)    (mm)    (mm)    (mm)    (mm)    (mm)    (mm)   (t/ha)  ------------------(kg nutrient/ha)-------------------- (kg/ha)
1
    SWAT Dec 23 2016    VER 2016/Rev 664                                            

    General Input/Output section (file.cio):                                        
    2/7/2020 21:40:57 QSWAT Workflow v1.5.2                                         
                                                                                    
Annual Summary for Watershed in year    5 of simulation

UNIT                                    PERCO    TILE                           WATER     SED     NO3     NO3     NO3     NO3        N       P       P
TIME     PREC    SURQ    LATQ     GWQ    LATE       Q     SW       ET     PET   YIELD   YIELD    SURQ    LATQ    PERC    CROP  ORGANIC SOLUBLE ORGANIC TILENO3
         (mm)    (mm)    (mm)    (mm)    (mm)    (mm)    (mm)    (mm)    (mm)    (mm)   (t/ha)  ------------------(kg nutrient/ha)-------------------- (kg/ha)
1
    SWAT Dec 23 2016    VER 2016/Rev 664                                            

    General Input/Output section (file.cio):                                        
    2/7/2020 21:40:57 QSWAT Workflow v1.5.2                                         
                                                                                    
Annual Summary for Watershed in year    6 of simulation

UNIT                                    PERCO    TILE                           WATER     SED     NO3     NO3     NO3     NO3        N       P       P
TIME     PREC    SURQ    LATQ     GWQ    LATE       Q     SW       ET     PET   YIELD   YIELD    SURQ    LATQ    PERC    CROP  ORGANIC SOLUBLE ORGANIC TILENO3
         (mm)    (mm)    (mm)    (mm)    (mm)    (mm)    (mm)    (mm)    (mm)    (mm)   (t/ha)  ------------------(kg nutrient/ha)-------------------- (kg/ha)
1
    SWAT Dec 23 2016    VER 2016/Rev 664                                            

    General Input/Output section (file.cio):                                        
    2/7/2020 21:40:57 QSWAT Workflow v1.5.2                                         
                                                                                    
Annual Summary for Watershed in year    7 of simulation

UNIT                                    PERCO    TILE                           WATER     SED     NO3     NO3     NO3     NO3        N       P       P
TIME     PREC    SURQ    LATQ     GWQ    LATE       Q     SW       ET     PET   YIELD   YIELD    SURQ    LATQ    PERC    CROP  ORGANIC SOLUBLE ORGANIC TILENO3
         (mm)    (mm)    (mm)    (mm)    (mm)    (mm)    (mm)    (mm)    (mm)    (mm)   (t/ha)  ------------------(kg nutrient/ha)-------------------- (kg/ha)
1
    SWAT Dec 23 2016    VER 2016/Rev 664                                            

    General Input/Output section (file.cio):                                        
    2/7/2020 21:40:57 QSWAT Workflow v1.5.2                                         
                                                                                    
Annual Summary for Watershed in year    8 of simulation

UNIT                                    PERCO    TILE                           WATER     SED     NO3     NO3     NO3     NO3        N       P       P
TIME     PREC    SURQ    LATQ     GWQ    LATE       Q     SW       ET     PET   YIELD   YIELD    SURQ    LATQ    PERC    CROP  ORGANIC SOLUBLE ORGANIC TILENO3
         (mm)    (mm)    (mm)    (mm)    (mm)    (mm)    (mm)    (mm)    (mm)    (mm)   (t/ha)  ------------------(kg nutrient/ha)-------------------- (kg/ha)
1
    SWAT Dec 23 2016    VER 2016/Rev 664                                            

    General Input/Output section (file.cio):                                        
    2/7/2020 21:40:57 QSWAT Workflow v1.5.2                                         
                                                                                    
Annual Summary for Watershed in year    9 of simulation

UNIT                                    PERCO    TILE                           WATER     SED     NO3     NO3     NO3     NO3        N       P       P
TIME     PREC    SURQ    LATQ     GWQ    LATE       Q     SW       ET     PET   YIELD   YIELD    SURQ    LATQ    PERC    CROP  ORGANIC SOLUBLE ORGANIC TILENO3
         (mm)    (mm)    (mm)    (mm)    (mm)    (mm)    (mm)    (mm)    (mm)    (mm)   (t/ha)  ------------------(kg nutrient/ha)-------------------- (kg/ha)
    1  576.60  162.83  296.27    1.15   10.54    0.00   97.94   87.35  117.39  460.37   14.36    0.01    0.42    0.23    0.00    26.08    0.01    3.19    0.00
    2  144.70   42.39   88.58    1.34    3.60    0.00   49.83   68.09  106.88  132.49    7.24    0.00    0.12    0.10    5.57     6.63    0.00    0.81    0.00
    3   93.80    0.02   39.42    0.96    0.00    0.00   20.65   83.51  115.48   40.61    0.00    0.00    0.00    0.00    0.80     0.00    0.00    0.00    0.00
    4  238.90   29.36  109.06    0.24    0.11    0.00   48.08   57.79  112.40  138.81    0.02    0.00    0.03    0.00    0.30     0.03    0.00    0.00    0.00
    5  134.70    1.56   77.43    0.13    0.16    0.00   43.93   74.10  133.57   79.29    0.00    0.00    0.05    0.00    0.03     0.00    0.00    0.00    0.00
    6  299.10   96.24  127.59    0.19    0.38    0.00   58.76   60.14   88.43  224.12    0.19    0.00    0.18    0.00    0.00     0.26    0.00    0.03    0.00
    7  248.80   13.67  150.21    0.29    0.65    0.00   70.45   72.83  102.85  164.25    0.04    0.00    0.20    0.01    0.01     0.07    0.00    0.01    0.00
    8  467.80  158.74  218.83    0.55    2.49    0.00   87.11   70.87  112.47  378.19    1.26    0.01    0.21    0.03    0.00     1.97    0.01    0.24    0.00
    9  166.70   19.08   76.44    0.86    0.51    0.00   77.93   80.13  150.23   96.46    0.37    0.00    0.05    0.01    0.00     0.47    0.00    0.06    0.00
   10  234.50   53.61   93.70    0.59    0.35    0.00   84.59   73.82  163.43  147.97    1.82    0.01    0.10    0.01    0.00     2.02    0.00    0.25    0.00
   11  180.90   27.20   81.36    0.30    0.26    0.00   82.84   74.57  149.86  108.92    1.71    0.00    0.09    0.00    0.00     1.60    0.00    0.20    0.00
   12  309.80   50.87  155.31    0.43    1.13    0.00   88.72   95.03  145.80  206.66    5.97    0.00    0.21    0.02    0.00     4.59    0.00    0.57    0.00

 2013 3096.30  655.58 1514.21    7.05   20.17    0.00   88.72  898.23 1498.81 2178.15   32.99    0.03    1.66    0.40    6.71    43.73    0.03    5.35    0.00
1
    SWAT Dec 23 2016    VER 2016/Rev 664                                            

    General Input/Output section (file.cio):                                        
    2/7/2020 21:40:57 QSWAT Workflow v1.5.2                                         
                                                                                    
Annual Summary for Watershed in year   10 of simulation

UNIT                                    PERCO    TILE                           WATER     SED     NO3     NO3     NO3     NO3        N       P       P
TIME     PREC    SURQ    LATQ     GWQ    LATE       Q     SW       ET     PET   YIELD   YIELD    SURQ    LATQ    PERC    CROP  ORGANIC SOLUBLE ORGANIC TILENO3
         (mm)    (mm)    (mm)    (mm)    (mm)    (mm)    (mm)    (mm)    (mm)    (mm)   (t/ha)  ------------------(kg nutrient/ha)-------------------- (kg/ha)
    1  549.60  175.25  276.07    1.00    8.17    0.00   89.65   95.58  142.87  452.41   12.50    0.00    0.38    0.13    0.00    29.93    0.01    3.66    0.00
    2  351.60   75.03  170.58    0.99    2.89    0.00   91.48   98.67  144.25  246.69    0.47    0.00    0.01    0.01    6.45     0.91    0.00    0.11    0.00
    3  222.80   39.26   93.86    1.06    0.35    0.00   55.64  128.89  167.25  134.30    0.02    0.00    0.00    0.00    1.11     0.05    0.00    0.01    0.00
    4  466.60   69.10  232.27    0.65    1.62    0.00   93.17  115.91  131.82  302.12    0.03    0.00    0.05    0.00    0.39     0.05    0.00    0.01    0.00
    5  221.20   40.38  112.81    0.84    0.94    0.00   90.88   78.53  141.33  154.15    0.03    0.00    0.12    0.00    0.03     0.05    0.00    0.01    0.00
    6  204.50   31.48   98.55    0.79    1.12    0.00   82.95   82.28  138.11  130.92    0.02    0.00    0.11    0.01    0.00     0.04    0.00    0.01    0.00
    7  729.10  446.72  180.36    0.68    5.47    0.00   97.00   64.28  111.58  627.73    1.41    0.01    0.27    0.04    0.01     2.15    0.02    0.27    0.00
    8  116.20    3.83   74.00    0.87    1.26    0.00   79.34   72.44  134.73   78.92    0.02    0.00    0.07    0.01    0.00     0.03    0.00    0.00    0.00
    9  109.60    8.96   47.80    0.40    0.11    0.00   76.92   55.66  137.79   57.27    0.14    0.00    0.06    0.00    0.00     0.20    0.00    0.02    0.00
   10   90.50    9.29   39.94    0.16    0.08    0.00   67.39   50.50  176.64   49.49    0.21    0.00    0.05    0.00    0.00     0.30    0.00    0.04    0.00
   11  332.20   51.25  175.44    0.18    0.93    0.00   85.41   86.18  134.85  226.95    2.23    0.00    0.31    0.02    0.00     2.74    0.00    0.34    0.00
   12  450.40  136.20  205.22    0.56    3.81    0.00   93.43   96.44  147.46  342.04    4.96    0.00    0.27    0.06    0.00     7.30    0.00    0.90    0.00

 2014 3844.30 1086.76 1706.91    8.18   26.74    0.00   93.43 1025.35 1708.68 2802.99   22.05    0.04    1.70    0.28    7.99    43.76    0.04    5.36    0.00
1
    SWAT Dec 23 2016    VER 2016/Rev 664                                            

    General Input/Output section (file.cio):                                        
    2/7/2020 21:40:57 QSWAT Workflow v1.5.2                                         
                                                                                    
Annual Summary for Watershed in year   11 of simulation

UNIT                                    PERCO    TILE                           WATER     SED     NO3     NO3     NO3     NO3        N       P       P
TIME     PREC    SURQ    LATQ     GWQ    LATE       Q     SW       ET     PET   YIELD   YIELD    SURQ    LATQ    PERC    CROP  ORGANIC SOLUBLE ORGANIC TILENO3
         (mm)    (mm)    (mm)    (mm)    (mm)    (mm)    (mm)    (mm)    (mm)    (mm)   (t/ha)  ------------------(kg nutrient/ha)-------------------- (kg/ha)
    1  682.50  240.13  319.41    1.16   12.08    0.00   95.22  101.03  139.19  560.78   23.06    0.00    0.43    0.25    0.00    38.15    0.01    4.66    0.00
    2  310.40   68.91  156.35    1.48    2.78    0.00   77.85  109.12  148.73  226.91    7.45    0.00    0.07    0.06    5.85     5.90    0.00    0.72    0.00
    3  174.40    6.58   75.65    1.30    0.15    0.00   71.83   97.73  136.43   83.72    0.00    0.00    0.00    0.00    1.02     0.00    0.00    0.00    0.00
    4  364.50  109.04  147.83    0.60    0.72    0.00   81.10   97.88  144.78  257.64    0.09    0.00    0.02    0.00    0.34     0.10    0.00    0.01    0.00
    5  421.40  104.74  210.74    0.80    4.58    0.00   92.94   89.02  125.98  316.43    0.08    0.01    0.18    0.01    0.03     0.11    0.00    0.01    0.00
    6  230.40   48.53  112.29    0.93    1.79    0.00   88.74   71.32  162.33  161.89    0.05    0.01    0.12    0.01    0.00     0.08    0.00    0.01    0.00
    7  101.30    3.02   46.33    0.69    0.16    0.00   71.65   70.13  169.73   50.17    0.00    0.00    0.04    0.00    0.01     0.00    0.00    0.00    0.00
    8  171.70   39.25   79.57    0.36    0.35    0.00   66.97   57.26  171.83  119.30    0.16    0.00    0.13    0.01    0.00     0.25    0.00    0.03    0.00
    9   30.50    0.00    9.48    0.12    0.00    0.00   59.33   28.64  151.15    9.70    0.00    0.00    0.02    0.00    0.00     0.00    0.00    0.00    0.00
   10  211.10   29.52  108.04    0.12    0.42    0.00   67.94   64.11  148.18  137.75    0.45    0.00    0.20    0.01    0.00     0.68    0.00    0.08    0.00
   11  541.90  203.23  236.37    0.20    4.58    0.00   91.52   72.02  148.99  439.84    9.73    0.00    0.38    0.07    0.00    10.85    0.00    1.33    0.00
   12  597.70  286.42  217.05    0.77    6.61    0.00   95.88   79.70  160.17  504.31   20.89    0.00    0.27    0.12    0.00     9.91    0.00    1.22    0.00

 2015 3837.80 1139.38 1719.11    8.53   34.20    0.00   95.88  937.96 1807.48 2868.45   61.96    0.04    1.87    0.54    7.25    66.05    0.03    8.09    0.00
1
    SWAT Dec 23 2016    VER 2016/Rev 664                                            

    General Input/Output section (file.cio):                                        
    2/7/2020 21:40:57 QSWAT Workflow v1.5.2                                         
                                                                                    
Annual Summary for Watershed in year   12 of simulation

UNIT                                    PERCO    TILE                           WATER     SED     NO3     NO3     NO3     NO3        N       P       P
TIME     PREC    SURQ    LATQ     GWQ    LATE       Q     SW       ET     PET   YIELD   YIELD    SURQ    LATQ    PERC    CROP  ORGANIC SOLUBLE ORGANIC TILENO3
         (mm)    (mm)    (mm)    (mm)    (mm)    (mm)    (mm)    (mm)    (mm)    (mm)   (t/ha)  ------------------(kg nutrient/ha)-------------------- (kg/ha)
    1  122.10    5.66   62.83    1.23    0.87    0.00   71.31   83.40  179.15   69.87    0.54    0.00    0.04    0.02    0.00     0.76    0.00    0.09    0.00
    2  182.20    6.79   90.92    0.73    0.24    0.00   64.98   90.26  176.42   98.56    0.01    0.00    0.01    0.00    6.65     0.02    0.00    0.00    0.00
    3  302.60   45.64  139.40    0.41    0.52    0.00   80.61   99.94  136.45  185.56    0.02    0.00    0.00    0.00    1.08     0.04    0.00    0.01    0.00
    4  986.50  437.49  419.70    0.87   16.73    0.00   98.39   80.06   98.97  858.11    0.16    0.01    0.10    0.02    0.28     0.51    0.01    0.06    0.00
    5   55.90   14.29   52.27    1.74    1.99    0.00   69.96   32.31  132.50   68.58    0.00    0.00    0.03    0.00    0.02     0.03    0.00    0.00    0.00
    6    2.60    0.00    0.46    1.12    0.00    0.00   60.50   11.58  133.36    1.80    0.00    0.00    0.01    0.00    0.00     0.00    0.00    0.00    0.00
    7  132.20   27.31   55.59    0.40    0.09    0.00   71.22   38.50  126.26   83.49    0.06    0.01    0.14    0.00    0.01     0.21    0.00    0.03    0.00
    8  160.10    9.76   74.23    0.09    0.18    0.00   69.89   76.51  189.15   84.24    0.05    0.00    0.10    0.00    0.00     0.10    0.00    0.01    0.00
    9  167.20   10.33   81.67    0.18    0.27    0.00   73.53   71.78  114.58   92.29    0.11    0.00    0.13    0.01    0.00     0.27    0.00    0.03    0.00
   10  159.00    2.73   70.86    0.18    0.21    0.00   75.12   79.05  159.92   73.87    0.04    0.00    0.07    0.00    0.00     0.08    0.00    0.01    0.00
   11  334.50   99.15  156.28    0.26    0.88    0.00   75.91   82.21  145.13  255.76    2.92    0.01    0.31    0.02    0.00     5.81    0.00    0.71    0.00
   12  398.80   82.52  206.08    0.41    3.40    0.00   91.66   87.88  134.30  289.07    6.19    0.00    0.32    0.05    0.00     7.85    0.00    0.96    0.00

 2016 3003.70  741.69 1410.29    7.62   25.36    0.00   91.66  833.49 1726.19 2161.19   10.11    0.04    1.27    0.13    8.05    15.68    0.02    1.92    0.00
1
    SWAT Dec 23 2016    VER 2016/Rev 664                                            

    General Input/Output section (file.cio):                                        
    2/7/2020 21:40:57 QSWAT Workflow v1.5.2                                         
                                                                                    
    FINAL VALUES

1
    SWAT Dec 23 2016    VER 2016/Rev 664                                            

    General Input/Output section (file.cio):                                        
    2/7/2020 21:40:57 QSWAT Workflow v1.5.2                                         
                                                                                    
                                            Average Plant Values (kg/ha)

  HRU       1 SUB   1 FRSE  Yld =  5114.6 BIOM =   7306.5
  HRU       2 SUB   2 FRSE  Yld =  2505.5 BIOM =   3579.3
  HRU       3 SUB   2 FRSE  Yld =  2484.9 BIOM =   3549.8
  HRU       4 SUB   2 FRSE  Yld =  5104.7 BIOM =   7292.4
  HRU       5 SUB   3 FRSE  Yld =  2505.6 BIOM =   3579.4
  HRU       6 SUB   3 FRSE  Yld =  2483.1 BIOM =   3547.3
  HRU       7 SUB   3 FRSE  Yld =  5208.9 BIOM =   7441.3
  HRU       8 SUB   3 FRSD  Yld =  4061.7 BIOM =   8396.2
  HRU       9 SUB   4 FRSE  Yld =  2482.1 BIOM =   3545.8
  HRU      10 SUB   4 FRSE  Yld =  5219.4 BIOM =   7456.3
  HRU      11 SUB   5 FRSE  Yld =  2505.6 BIOM =   3579.4
  HRU      12 SUB   5 FRSE  Yld =  2494.8 BIOM =   3564.0
  HRU      13 SUB   5 FRSE  Yld =  5210.4 BIOM =   7443.4
  HRU      14 SUB   5 FRSD  Yld =  4060.4 BIOM =   8393.8
  HRU      15 SUB   6 FRSE  Yld =  5214.1 BIOM =   7448.8
  HRU      16 SUB   7 FRSE  Yld =  5209.7 BIOM =   7442.5
  HRU      17 SUB   8 FRSE  Yld =  5216.0 BIOM =   7451.4
  HRU      18 SUB   9 FRSE  Yld =  2503.2 BIOM =   3576.0
  HRU      19 SUB   9 FRSE  Yld =  5097.1 BIOM =   7281.6
  HRU      20 SUB  10 FRSE  Yld =  2505.7 BIOM =   3579.6
  HRU      21 SUB  10 FRSE  Yld =  5148.7 BIOM =   7355.3
  HRU      22 SUB  11 FRSE  Yld =  5213.3 BIOM =   7447.5
  HRU      23 SUB  12 FRSE  Yld =  5213.1 BIOM =   7447.3
  HRU      24 SUB  13 FRSE  Yld =  4528.0 BIOM =   6468.5
  HRU      25 SUB  13 FRSE  Yld =  4529.3 BIOM =   6470.4
  HRU      26 SUB  13 FRSE  Yld =  5053.4 BIOM =   7219.1
  HRU      27 SUB  13 FRSE  Yld =  4494.4 BIOM =   6420.5
  HRU      28 SUB  13 FRSE  Yld =  4527.4 BIOM =   6467.7
  HRU      29 SUB  13 FRSE  Yld =  4532.2 BIOM =   6474.5
  HRU      30 SUB  13 FRSE  Yld =  4572.3 BIOM =   6531.9
  HRU      31 SUB  13 FRSE  Yld =  2850.8 BIOM =   4072.6
  HRU      32 SUB  13 SWCH  Yld = 25407.9 BIOM =  43724.3
  HRU      33 SUB  13 SWCH  Yld = 23215.4 BIOM =  40273.4
  HRU      34 SUB  13 FRSE  Yld =  3999.2 BIOM =   5713.1
  HRU      35 SUB  13 FRSE  Yld =  5899.5 BIOM =   8427.9
  HRU      36 SUB  13 FRSE  Yld =  2504.8 BIOM =   3578.3
  HRU      37 SUB  13 FRSE  Yld =  2483.4 BIOM =   3547.8
  HRU      38 SUB  13 FRSE  Yld =  5205.9 BIOM =   7437.0
  HRU      39 SUB  13 FRSD  Yld =  5340.8 BIOM =  11125.7
  HRU      40 SUB  13 BARR  Yld =     0.0 BIOM =      1.0
  HRU      41 SUB  13 BARR  Yld =     0.0 BIOM =      1.0
  HRU      42 SUB  13 BARR  Yld =     0.0 BIOM =      1.0

    HRU STATISTICS

                AVE ANNUAL VALUES

   HRU  SUB  SOIL       AREAkm2    CN     AWCmm   USLE_LS  IRRmm  AUTONkh AUTOPkh  MIXEF PRECmm SURQGENmm   GWQmm    ETmm   SEDth  NO3kgh  ORGNkgh BIOMth   YLDth  SURQmm
      1   1   FAGASA     .167E+00   70.00   97.20    8.01    0.00    0.00    0.00    0.20 3445.52  918.52 1572.33  927.12   25.48    1.69   41.96    7.31    5.11  918.52
      2   2   FAGASA     .103E-03   70.00   97.20    0.07    0.00    0.00    0.00    0.20 3445.52 1009.51 1325.06  997.10    0.03    0.02    0.70    3.58    2.51 1007.67
      3   2   FAGASA     .308E-03   70.00   97.20    0.31    0.00    0.00    0.00    0.20 3445.52 1009.14 1327.09  996.69    0.88    0.05   11.34    3.55    2.48 1009.13
      4   2   FAGASA     .373E+00   70.00   97.20    7.94    0.00    0.00    0.00    0.20 3445.52  919.67 1569.88  927.66   27.84    1.69   42.28    7.29    5.10  919.67
      5   3   FAGASA     .103E-03   70.00   97.20    0.07    0.00    0.00    0.00    0.20 3445.52 1009.51 1325.06  997.08    0.03    0.02    0.70    3.58    2.51 1007.67
      6   3   FAGASA     .103E-03   70.00   97.20    0.42    0.00    0.00    0.00    0.20 3445.52 1009.08 1327.58  996.58    1.01    0.06   12.57    3.55    2.48 1009.07
      7   3   FAGASA     .124E+00   70.00   97.20   13.22    0.00    0.00    0.00    0.20 3445.52  893.67 1620.16  917.25   39.02    1.65   43.05    7.44    5.21  893.67
      8   3   FAGASA     .282E-01   77.00   97.20   21.18    0.00    0.00    0.00    0.20 3445.52 1130.72 1386.26  926.10   20.91    1.37   47.34    8.70    6.09 1130.72
      9   4   FAGASA     .103E-03   70.00   97.20    0.44    0.00    0.00    0.00    0.20 3445.52 1009.07 1327.66  996.55    1.06    0.06   13.04    3.55    2.48 1009.06
     10   4   FAGASA     .104E+00   70.00   97.20    9.55    0.00    0.00    0.00    0.20 3445.52  894.44 1617.30  917.36   27.53    1.65   42.13    7.46    5.22  894.44
     11   5   FAGASA     .103E-03   70.00   97.20    0.07    0.00    0.00    0.00    0.20 3445.52 1009.51 1325.06  997.09    0.03    0.02    0.70    3.58    2.51 1007.67
     12   5   FAGASA     .103E-03   70.00   97.20    0.21    0.00    0.00    0.00    0.20 3445.52 1009.33 1326.03  996.89    0.44    0.04    6.51    3.56    2.49 1009.29
     13   5   FAGASA     .113E+00   70.00   97.20   11.98    0.00    0.00    0.00    0.20 3445.52  893.67 1619.83  917.25   34.99    1.66   42.80    7.44    5.21  893.67
     14   5   FAGASA     .423E-01   77.00   97.20   21.18    0.00    0.00    0.00    0.20 3445.52 1130.71 1386.27  926.11   21.95    1.36   47.67    8.70    6.09 1130.71
     15   6   FAGASA     .120E+00   70.00   97.20   10.41    0.00    0.00    0.00    0.20 3445.52  893.68 1619.18  917.23   30.53    1.66   42.45    7.45    5.21  893.68
     16   7   FAGASA     .115E+00   70.00   97.20   12.99    0.00    0.00    0.00    0.20 3445.52  893.68 1620.12  917.21   37.98    1.65   42.99    7.44    5.21  893.68
     17   8   FAGASA     .168E-01   70.00   97.20   11.05    0.00    0.00    0.00    0.20 3445.52  893.69 1619.62  917.16   25.64    1.66   41.89    7.45    5.22  893.69
     18   9   FAGASA     .205E-03   70.00   97.20    0.07    0.00    0.00    0.00    0.20 3445.52 1009.51 1325.13  997.02    0.10    0.02    1.92    3.58    2.50 1008.94
     19   9   FAGASA     .328E-01   70.00   97.20    7.80    0.00    0.00    0.00    0.20 3445.52  921.59 1565.80  928.50   20.56    1.70   41.16    7.28    5.10  921.59
     20  10   FAGASA     .103E-03   70.00   97.20    0.07    0.00    0.00    0.00    0.20 3445.52 1009.52 1325.06  997.05    0.03    0.02    0.70    3.58    2.51 1007.67
     21  10   FAGASA     .904E-01   70.00   97.20    8.36    0.00    0.00    0.00    0.20 3445.52  913.49 1582.80  924.83   24.41    1.68   41.78    7.36    5.15  913.49
     22  11   FAGASA     .225E-01   70.00   97.20   12.57    0.00    0.00    0.00    0.20 3445.52  893.69 1620.03  917.18   30.20    1.66   42.41    7.45    5.21  893.69
     23  12   FAGASA     .697E-01   70.00   97.20   11.10    0.00    0.00    0.00    0.20 3445.52  893.69 1619.63  917.18   30.56    1.66   42.45    7.45    5.21  893.69
     24  13   AUA        .410E-03   70.00  165.80    0.07    0.00    0.00    0.00    0.20 3445.52 1039.68 1257.60 1037.18    0.02    0.03    0.59    6.47    4.53 1037.78
     25  13   AUA        .205E-03   70.00  165.80    0.27    0.00    0.00    0.00    0.20 3445.52 1039.48 1258.43 1037.04    0.28    0.05    4.33    6.47    4.53 1039.45
     26  13   AUA        .215E-02   70.00  165.80    2.27    0.00    0.00    0.00    0.20 3445.52 1033.95 1301.67 1027.77    3.38    0.77   25.62    7.22    5.05 1033.95
     27  13   FAGASA     .308E-03   70.00   97.20    4.66    0.00    0.00    0.00    0.20 3445.52  959.49 1494.60  952.54    8.26    1.78   36.12    6.42    4.49  959.49
     28  13   AUA        .718E-03   70.00  165.80    0.08    0.00    0.00    0.00    0.20 3445.52 1039.66 1257.69 1037.17    0.07    0.03    1.37    6.47    4.53 1039.31
     29  13   AUA        .410E-03   70.00  165.80    0.31    0.00    0.00    0.00    0.20 3445.52 1039.36 1258.97 1036.95    0.39    0.05    5.64    6.47    4.53 1039.35
     30  13   AUA        .215E-02   70.00  165.80    2.55    0.00    0.00    0.00    0.20 3445.52 1037.61 1267.72 1035.41    4.21    0.20   28.61    6.53    4.57 1037.61
     31  13   FAGASA     .205E-03   70.00   97.20    2.92    0.00    0.00    0.00    0.20 3445.52  993.56 1404.06  984.46    7.67    1.23   36.54    4.07    2.85  993.56
     32  13   AUA        .718E-03   59.00  165.80    3.09    0.00  142.90    0.00    0.20 3445.52  582.89 1747.76 1059.89    0.07   12.25    0.99   39.05   25.41  582.89
     33  13   FAGASA     .308E-03   72.00   97.20    5.06    0.00  150.84    0.00    0.20 3445.52  922.33 1496.42  990.89    0.22   17.26    3.07   35.76   23.22  922.33
     34  13   AUA        .103E-03   55.00  165.80    0.10    0.00    0.00    0.00    0.20 3445.52  515.67 1755.86 1036.86    0.02    0.01    0.32    5.71    4.00  515.60
     35  13   AUA        .370E-01   55.00  165.80    8.07    0.00    0.00    0.00    0.20 3445.52  489.69 1923.00  988.64    6.28    1.98   29.35    8.43    5.90  489.69
     36  13   FAGASA     .205E-03   70.00   97.20    0.07    0.00    0.00    0.00    0.20 3445.52 1009.53 1325.07  996.99    0.05    0.02    1.16    3.58    2.50 1007.68
     37  13   FAGASA     .103E-03   70.00   97.20    0.42    0.00    0.00    0.00    0.20 3445.52 1009.09 1327.58  996.49    1.01    0.06   12.57    3.55    2.48 1009.08
     38  13   FAGASA     .209E+00   70.00   97.20   16.71    0.00    0.00    0.00    0.20 3445.52  893.68 1621.07  917.18   52.57    1.65   43.62    7.44    5.21  893.68
     39  13   AUA        .103E-03   66.00  165.80    9.71    0.00    0.00    0.00    0.20 3445.52  823.48 1589.35  997.20    1.35    1.69   13.97   11.44    8.01  823.48
     40  13   AUA        .103E-03   86.00  165.80    0.44    0.00    0.00    0.00    0.20 3445.52 1918.37  476.10  986.17    6.15    0.14   36.02    0.00    0.00 1918.36
     41  13   AUA        .923E-03   86.00  165.80    0.96    0.00    0.00    0.00    0.20 3445.52 1917.87  478.63  985.24   19.31    0.20   43.46    0.00    0.00 1917.87
     42  13   FAGASA     .103E-03   91.00   97.20    1.93    0.00    0.00    0.00    0.20 3445.52 2265.15  224.67  916.28   50.00    0.89   48.56    0.00    0.00 2265.15



                AVE MONTHLY BASIN VALUES
                   SNOW                      WATER               SED
  MON     RAIN     FALL   SURF Q    LAT Q    YIELD       ET    YIELD      PET
          (MM)     (MM)     (MM)     (MM)     (MM)     (MM)   (T/HA)     (MM)
    1   482.70     0.00   145.97   238.65   385.86    91.84    12.61   144.65
    2   253.79     0.00    49.56   129.97   180.84    93.97     3.89   147.90
    3   198.40     0.00    22.88    87.08   111.05   102.52     0.01   138.90
    4   514.13     0.00   161.25   227.22   389.17    87.91     0.07   121.99
    5   208.30     0.00    40.24   113.31   154.61    68.49     0.03   133.35
    6   184.15     0.00    44.06    84.72   129.69    56.33     0.07   130.56
    7   302.85     0.00   122.68   108.12   231.41    61.44     0.38   127.60
    8   228.95     0.00    52.90   111.66   165.16    69.27     0.37   152.05
    9   118.50     0.00     9.59    53.85    63.93    59.05     0.16   138.44
   10   173.78     0.00    23.79    78.14   102.27    66.87     0.63   162.04
   11   347.38     0.00    95.21   162.36   257.87    78.75     4.15   144.71
   12   439.18     0.00   139.00   195.91   335.52    89.76     9.50   146.93

     AVE ANNUAL BASIN STRESS DAYS
               WATER STRESS DAYS =     1.86
               TEMPERATURE STRESS DAYS =     0.09
               NITROGEN STRESS DAYS =     8.15
               PHOSPHORUS STRESS DAYS =     0.00
               AERATION STRESS DAYS =     0.00
1
    SWAT Dec 23 2016    VER 2016/Rev 664                                            

    General Input/Output section (file.cio):                                        
    2/7/2020 21:40:57 QSWAT Workflow v1.5.2                                         
                                                                                    
         AVE ANNUAL BASIN VALUES

              PRECIP =   3445.5 MM
              SNOW FALL =    0.00 MM
              SNOW MELT =     0.00 MM
              SUBLIMATION =     0.00 MM
              SURFACE RUNOFF Q =   905.85 MM
              LATERAL SOIL Q = 1587.63 MM
              TILE Q =     0.00 MM
              GROUNDWATER (SHAL AQ) Q =     7.84 MM
              GROUNDWATER (DEEP AQ) Q =     1.37 MM
              REVAP (SHAL AQ => SOIL/PLANTS) =   32.99 MM
              DEEP AQ RECHARGE =     1.33 MM
              TOTAL AQ RECHARGE =   26.56 MM
              TOTAL WATER YLD =  2502.69 MM
              PERCOLATION OUT OF SOIL =   26.62 MM
              ET =    923.8 MM
              PET =   1685.3MM
              TRANSMISSION LOSSES =     0.00 MM
              SEPTIC INFLOW =       0.00 MM
              TOTAL SEDIMENT LOADING =     31.78 T/HA
              TILE FROM IMPOUNDED WATER =     0.000 (MM)
              EVAPORATION FROM IMPOUNDED WATER =     0.000 (MM)
              SEEPAGE INTO SOIL FROM IMPOUNDED WATER =    0.000 (MM)
              OVERFLOW FROM IMPOUNDED WATER =    0.000 (MM)
1
    SWAT Dec 23 2016    VER 2016/Rev 664                                            

    General Input/Output section (file.cio):                                        
    2/7/2020 21:40:57 QSWAT Workflow v1.5.2                                         
                                                                                    
              AVE ANNUAL BASIN VALUES


              NUTRIENTS
                   ORGANIC N =    42.304 (KG/HA)
                   ORGANIC P =     5.181 (KG/HA)
                   NO3 YIELD (SQ) =     0.038 (KG/HA)
                   NO3 YIELD (LAT) =    1.626 (KG/HA)
                   NO3 YIELD (TILE) =    0.000 (KG/HA)
                   SOLP YIELD (TILE) =    0.000(KG/HA)
                   SOLP YIELD (SURF INLET RISER) =    0.000 (KG/HA)
                   SOL P YIELD =    0.030 (KG/HA)
                   NO3 LEACHED =     0.336 (KG/HA)
                   P LEACHED =     0.010 (KG/HA)
                   N UPTAKE =     7.499 (KG/HA)
                   P UPTAKE =    1.758 (KG/HA)
                   NO3 YIELD (GWQ) =     0.002 (KG/HA)
                   ACTIVE TO SOLUTION P FLOW =         0.327 (KG/HA)
                   ACTIVE TO STABLE P FLOW =         0.696 (KG/HA)
                   N FERTILIZER APPLIED =     0.089 (KG/HA)
                   P FERTILIZER APPLIED =     0.000 (KG/HA)
                   N FIXATION =     0.000 (KG/HA)
                   DENITRIFICATION =     0.000 (KG/HA)
                   HUMUS MIN ON ACTIVE ORG N =    11.780 (KG/HA)
                   ACTIVE TO STABLE ORG N =   -10.149 (KG/HA)
                   HUMUS MIN ON ACTIVE ORG P =    2.010 (KG/HA)
                   MIN FROM FRESH ORG N =    1.273 (KG/HA)
                   MIN FROM FRESH ORG P =    0.304 (KG/HA)
                   NO3 IN RAINFALL =     0.000 (KG/HA)
                   INITIAL NO3 IN SOIL =      37.092 (KG/HA)
                   FINAL NO3 IN SOIL =         5.539 (KG/HA)
                   INITIAL ORG N IN SOIL =   11056.045 (KG/HA)
                   FINAL ORG N IN SOIL =     10107.212 (KG/HA)
                   INITIAL MIN P IN SOIL =    1757.360 (KG/HA)
                   FINAL MIN P IN SOIL =      1684.864 (KG/HA)
                   INITIAL ORG P IN SOIL =    1354.365 (KG/HA)
                   FINAL ORG P IN SOIL =    1230.949 (KG/HA)
                   NO3 IN FERT =     0.089 (KG/HA)
                   AMMONIA IN FERT =     0.000 (KG/HA)
                   ORG N IN FERT =     0.000 (KG/HA)
                   MINERAL P IN FERT =     0.000 (KG/HA)
                   ORG P IN FERT =     0.000 (KG/HA)
                   N REMOVED IN YIELD =     5.984 (KG/HA)
                   P REMOVED IN YIELD =     1.406 (KG/HA)
                   AMMONIA VOLATILIZATION =     0.000 (KG/HA)
                   AMMONIA NITRIFICATION =      0.000 (KG/HA)
                   NO3 EVAP-LAYER 2 TO 1 =    3.276

                   DIE-GRO P Q =           0.0 (No/M2)
                   DIE-GRO LP Q =           0.0 (No/M2)
                   DIE-GRO P SED =          0.0 (No/M2)
                   DIE-GRO LP SED =          0.0 (No/M2)
                   BACT P RUNOFF =          0.0 (No/M2)
                   BACT LP RUNOFF =          0.0 (No/M2)
                   BACT P SEDIMENT =          0.0 (No/M2)
                   BACT LP SEDIMENT =          0.0 (No/M2)
                   BACT P INCORP =          0.0 (No/M2)
                   BACT LP INCORP =          0.0 (No/M2)

                   NITRATE SEPTIC =         0.00 (kg/ha)
                   AMMONIA SEPTIC =         0.00 (kg/ha)
                   ORG N SEPTIC =         0.00 (kg/ha)
                   FRESH ORGN SEPTIC =         0.00 (kg/ha)
                   ORG P SEPTIC =         0.00 (kg/ha)
                   FRESH ORGP SEPTIC =         0.00 (kg/ha)
                   SOL P SEPTIC =         0.00 (kg/ha)
                   BOD SEPTIC =         0.00 (kg/ha)
