1
    SWAT Dec 23 2016    VER 2016/Rev 664                                                                 0/ 0/   0      0: 0: 0

    General Input/Output section (file.cio):                                        
    2/7/2020 21:40:57 QSWAT Workflow v1.5.2                                         
                                                                                    


       RCH      GIS   MON     AREAkm2  FLOW_INcms FLOW_OUTcms     EVAPcms    TLOSScms  SED_INtons SED_OUTtons SEDCONCmg/L   ORGN_INkg  ORGN_OUTkg   ORGP_INkg  ORGP_OUTkg    NO3_INkg   NO3_OUTkg    NH4_INkg   NH4_OUTkg    NO2_INkg   NO2_OUTkg   MINP_INkg  MINP_OUTkg   CHLA_INkg  CHLA_OUTkg   CBOD_INkg  CBOD_OUTkg  DISOX_INkg DISOX_OUTkg SOLPST_INmgSOLPST_OUTmg SORPST_INmgSORPST_OUTmg  REACTPSTmg    VOLPSTmg  SETTLPSTmgRESUSP_PSTmgDIFFUSEPSTmgREACBEDPSTmg   BURYPSTmg   BED_PSTmg BACTP_OUTctBACTLP_OUTct  CMETAL#1kg  CMETAL#2kg  CMETAL#3kg     TOT Nkg     TOT Pkg NO3ConcMg/l    WTMPdegc
REACH    1        0     1  0.1667E+00  0.2855E-01  0.2855E-01  0.3290E-05  0.0000E+00  0.1928E+03  0.1928E+03  0.1056E+04  0.4258E+03  0.4257E+03  0.9373E+02  0.9369E+02  0.7189E+01  0.7188E+01  0.0000E+00  0.7424E-01  0.0000E+00  0.0000E+00  0.1486E+00  0.1754E+00  0.4555E+01  0.4501E+01  0.2650E+05  0.2645E+05  0.4588E+03  0.2236E+03  0.0000E+00  0.0000E+00  0.0000E+00  0.0000E+00  0.0000E+00  0.0000E+00  0.0000E+00  0.0000E+00  0.0000E+00  0.0000E+00  0.0000E+00  0.0000E+00  0.0000E+00  0.0000E+00  0.0000E+00  0.0000E+00  0.0000E+00  0.4329E+03  0.9386E+02  0.0000E+00  0.0000E+00
REACH    2        0     1  0.3738E+00  0.6397E-01  0.6395E-01  0.1534E-04  0.0000E+00  0.4710E+03  0.4710E+03  0.1151E+04  0.9762E+03  0.9754E+03  0.2150E+03  0.2147E+03  0.1610E+02  0.1610E+02  0.0000E+00  0.5046E+00  0.0000E+00  0.0000E+00  0.3263E+00  0.5090E+00  0.1047E+02  0.1019E+02  0.6341E+05  0.6308E+05  0.1028E+04  0.4995E+03  0.0000E+00  0.0000E+00  0.0000E+00  0.0000E+00  0.0000E+00  0.0000E+00  0.0000E+00  0.0000E+00  0.0000E+00  0.0000E+00  0.0000E+00  0.0000E+00  0.0000E+00  0.0000E+00  0.0000E+00  0.0000E+00  0.0000E+00  0.9920E+03  0.2153E+03  0.0000E+00  0.0000E+00
REACH    3        0     1  0.1521E+00  0.2635E-01  0.2634E-01  0.4822E-05  0.0000E+00  0.2279E+03  0.2279E+03  0.1344E+04  0.3677E+03  0.3675E+03  0.8119E+02  0.8114E+02  0.6370E+01  0.6368E+01  0.0000E+00  0.9942E-01  0.0000E+00  0.0000E+00  0.2230E+00  0.2589E+00  0.3901E+01  0.3821E+01  0.2770E+05  0.2761E+05  0.4162E+03  0.2033E+03  0.0000E+00  0.0000E+00  0.0000E+00  0.0000E+00  0.0000E+00  0.0000E+00  0.0000E+00  0.0000E+00  0.0000E+00  0.0000E+00  0.0000E+00  0.0000E+00  0.0000E+00  0.0000E+00  0.0000E+00  0.0000E+00  0.0000E+00  0.3740E+03  0.8140E+02  0.0000E+00  0.0000E+00
REACH    4        0     1  0.1036E+00  0.1786E-01  0.1786E-01  0.5453E-06  0.0000E+00  0.1341E+03  0.1341E+03  0.1174E+04  0.2767E+03  0.2767E+03  0.6094E+02  0.6094E+02  0.4324E+01  0.4324E+01  0.0000E+00  0.1610E-01  0.0000E+00  0.0000E+00  0.9082E-01  0.9666E-01  0.2906E+01  0.2895E+01  0.1773E+05  0.1772E+05  0.2883E+03  0.1397E+03  0.0000E+00  0.0000E+00  0.0000E+00  0.0000E+00  0.0000E+00  0.0000E+00  0.0000E+00  0.0000E+00  0.0000E+00  0.0000E+00  0.0000E+00  0.0000E+00  0.0000E+00  0.0000E+00  0.0000E+00  0.0000E+00  0.0000E+00  0.2811E+03  0.6103E+02  0.0000E+00  0.0000E+00
REACH    5        0     1  0.1560E+00  0.2706E-01  0.2706E-01  0.1391E-05  0.0000E+00  0.1882E+03  0.1882E+03  0.1078E+04  0.3310E+03  0.3310E+03  0.7312E+02  0.7311E+02  0.6502E+01  0.6502E+01  0.0000E+00  0.2559E-01  0.0000E+00  0.0000E+00  0.2785E+00  0.2877E+00  0.3521E+01  0.3502E+01  0.2358E+05  0.2356E+05  0.4227E+03  0.2092E+03  0.0000E+00  0.0000E+00  0.0000E+00  0.0000E+00  0.0000E+00  0.0000E+00  0.0000E+00  0.0000E+00  0.0000E+00  0.0000E+00  0.0000E+00  0.0000E+00  0.0000E+00  0.0000E+00  0.0000E+00  0.0000E+00  0.0000E+00  0.3375E+03  0.7340E+02  0.0000E+00  0.0000E+00
REACH    6        0     1  0.1200E+00  0.2072E-01  0.2071E-01  0.4792E-05  0.0000E+00  0.1726E+03  0.1726E+03  0.1302E+04  0.3301E+03  0.3299E+03  0.7274E+02  0.7268E+02  0.5045E+01  0.5043E+01  0.0000E+00  0.1053E+00  0.0000E+00  0.0000E+00  0.1021E+00  0.1401E+00  0.3468E+01  0.3383E+01  0.2221E+05  0.2213E+05  0.3345E+03  0.1615E+03  0.0000E+00  0.0000E+00  0.0000E+00  0.0000E+00  0.0000E+00  0.0000E+00  0.0000E+00  0.0000E+00  0.0000E+00  0.0000E+00  0.0000E+00  0.0000E+00  0.0000E+00  0.0000E+00  0.0000E+00  0.0000E+00  0.0000E+00  0.3351E+03  0.7282E+02  0.0000E+00  0.0000E+00
REACH    7        0     1  0.1150E+00  0.1987E-01  0.1987E-01  0.1025E-05  0.0000E+00  0.2056E+03  0.2056E+03  0.1618E+04  0.3351E+03  0.3351E+03  0.7391E+02  0.7390E+02  0.4866E+01  0.4866E+01  0.0000E+00  0.2088E-01  0.0000E+00  0.0000E+00  0.9240E-01  0.9996E-01  0.3531E+01  0.3514E+01  0.2506E+05  0.2504E+05  0.3209E+03  0.1540E+03  0.0000E+00  0.0000E+00  0.0000E+00  0.0000E+00  0.0000E+00  0.0000E+00  0.0000E+00  0.0000E+00  0.0000E+00  0.0000E+00  0.0000E+00  0.0000E+00  0.0000E+00  0.0000E+00  0.0000E+00  0.0000E+00  0.0000E+00  0.3400E+03  0.7400E+02  0.0000E+00  0.0000E+00
REACH    8        0     1  0.3248E+00  0.5630E-01  0.5630E-01  0.3889E-05  0.0000E+00  0.4364E+03  0.4254E+02  0.2107E+03  0.7427E+03  0.7425E+03  0.1640E+03  0.1639E+03  0.1358E+02  0.1358E+02  0.1250E+00  0.2333E+00  0.0000E+00  0.1278E-06  0.5616E+00  0.6008E+00  0.7786E+01  0.7722E+01  0.5390E+05  0.5381E+05  0.4595E+03  0.4352E+03  0.0000E+00  0.0000E+00  0.0000E+00  0.0000E+00  0.0000E+00  0.0000E+00  0.0000E+00  0.0000E+00  0.0000E+00  0.0000E+00  0.0000E+00  0.0000E+00  0.0000E+00  0.0000E+00  0.0000E+00  0.0000E+00  0.0000E+00  0.7563E+03  0.1645E+03  0.0000E+00  0.0000E+00
REACH    9        0     1  0.5735E+00  0.9815E-01  0.9814E-01  0.4492E-05  0.0000E+00  0.6943E+03  0.1098E+03  0.2795E+03  0.1480E+04  0.1480E+04  0.3258E+03  0.3257E+03  0.2471E+02  0.2471E+02  0.5789E+00  0.7206E+00  0.0000E+00  0.1356E-05  0.7163E+00  0.7676E+00  0.1553E+02  0.1546E+02  0.9396E+05  0.9387E+05  0.8137E+03  0.7675E+03  0.0000E+00  0.0000E+00  0.0000E+00  0.0000E+00  0.0000E+00  0.0000E+00  0.0000E+00  0.0000E+00  0.0000E+00  0.0000E+00  0.0000E+00  0.0000E+00  0.0000E+00  0.0000E+00  0.0000E+00  0.0000E+00  0.0000E+00  0.1505E+04  0.3265E+03  0.0000E+00  0.0000E+00
REACH   10        0     1  0.7677E+00  0.1315E+00  0.1315E+00  0.8603E-05  0.0000E+00  0.3451E+03  0.1527E+03  0.2945E+03  0.1986E+04  0.1986E+04  0.4371E+03  0.4370E+03  0.3291E+02  0.3290E+02  0.7367E+00  0.1010E+01  0.1356E-05  0.3842E-04  0.9461E+00  0.1045E+01  0.2079E+02  0.2065E+02  0.1256E+06  0.1254E+06  0.1157E+04  0.1029E+04  0.0000E+00  0.0000E+00  0.0000E+00  0.0000E+00  0.0000E+00  0.0000E+00  0.0000E+00  0.0000E+00  0.0000E+00  0.0000E+00  0.0000E+00  0.0000E+00  0.0000E+00  0.0000E+00  0.0000E+00  0.0000E+00  0.0000E+00  0.2020E+04  0.4381E+03  0.0000E+00  0.0000E+00
REACH   11        0     1  0.9102E+00  0.1561E+00  0.1561E+00  0.2857E-05  0.0000E+00  0.3573E+03  0.1709E+03  0.2685E+03  0.2377E+04  0.2377E+04  0.5233E+03  0.5232E+03  0.3890E+02  0.3890E+02  0.1115E+01  0.1224E+01  0.3842E-04  0.4811E-05  0.1204E+01  0.1244E+01  0.2468E+02  0.2463E+02  0.1516E+06  0.1516E+06  0.1253E+04  0.1221E+04  0.0000E+00  0.0000E+00  0.0000E+00  0.0000E+00  0.0000E+00  0.0000E+00  0.0000E+00  0.0000E+00  0.0000E+00  0.0000E+00  0.0000E+00  0.0000E+00  0.0000E+00  0.0000E+00  0.0000E+00  0.0000E+00  0.0000E+00  0.2417E+04  0.5245E+03  0.0000E+00  0.0000E+00
REACH   12        0     1  0.1305E+01  0.2244E+00  0.2244E+00  0.9750E-05  0.0000E+00  0.3137E+03  0.2612E+03  0.2956E+03  0.3311E+04  0.3311E+04  0.7294E+03  0.7292E+03  0.5543E+02  0.5542E+02  0.1457E+01  0.1816E+01  0.4939E-05  0.6708E-04  0.1904E+01  0.2034E+01  0.3436E+02  0.3420E+02  0.2183E+06  0.2181E+06  0.1850E+04  0.1749E+04  0.0000E+00  0.0000E+00  0.0000E+00  0.0000E+00  0.0000E+00  0.0000E+00  0.0000E+00  0.0000E+00  0.0000E+00  0.0000E+00  0.0000E+00  0.0000E+00  0.0000E+00  0.0000E+00  0.0000E+00  0.0000E+00  0.0000E+00  0.3368E+04  0.7312E+03  0.0000E+00  0.0000E+00
REACH   13        0     1  0.1675E+01  0.2879E+00  0.2878E+00  0.2760E-04  0.0000E+00  0.9953E+03  0.2977E+03  0.2574E+03  0.4366E+04  0.4364E+04  0.9619E+03  0.9613E+03  0.7119E+02  0.7118E+02  0.1837E+01  0.3206E+01  0.6708E-04  0.6517E-03  0.2344E+01  0.2841E+01  0.4514E+02  0.4466E+02  0.3025E+06  0.3016E+06  0.2627E+04  0.2241E+04  0.0000E+00  0.0000E+00  0.0000E+00  0.0000E+00  0.0000E+00  0.0000E+00  0.0000E+00  0.0000E+00  0.0000E+00  0.0000E+00  0.0000E+00  0.0000E+00  0.0000E+00  0.0000E+00  0.0000E+00  0.0000E+00  0.0000E+00  0.4439E+04  0.9641E+03  0.0000E+00  0.0000E+00
REACH    1        0     2  0.1667E+00  0.9352E-02  0.9350E-02  0.1952E-05  0.0000E+00  0.9680E+02  0.9680E+02  0.4491E+03  0.1136E+03  0.1135E+03  0.2502E+02  0.2501E+02  0.2019E+01  0.2019E+01  0.0000E+00  0.2744E-01  0.0000E+00  0.0000E+00  0.2440E-01  0.3421E-01  0.1607E+01  0.1584E+01  0.1392E+05  0.1389E+05  0.1266E+03  0.7799E+02  0.0000E+00  0.0000E+00  0.0000E+00  0.0000E+00  0.0000E+00  0.0000E+00  0.0000E+00  0.0000E+00  0.0000E+00  0.0000E+00  0.0000E+00  0.0000E+00  0.0000E+00  0.0000E+00  0.0000E+00  0.0000E+00  0.0000E+00  0.1156E+03  0.2504E+02  0.0000E+00  0.0000E+00
REACH    2        0     2  0.3738E+00  0.2097E-01  0.2096E-01  0.1359E-04  0.0000E+00  0.2363E+03  0.2363E+03  0.4894E+03  0.2558E+03  0.2555E+03  0.5639E+02  0.5630E+02  0.4519E+01  0.4515E+01  0.0000E+00  0.2115E+00  0.0000E+00  0.0000E+00  0.5279E-01  0.1287E+00  0.3622E+01  0.3484E+01  0.3328E+05  0.3300E+05  0.2839E+03  0.1750E+03  0.0000E+00  0.0000E+00  0.0000E+00  0.0000E+00  0.0000E+00  0.0000E+00  0.0000E+00  0.0000E+00  0.0000E+00  0.0000E+00  0.0000E+00  0.0000E+00  0.0000E+00  0.0000E+00  0.0000E+00  0.0000E+00  0.0000E+00  0.2603E+03  0.5643E+02  0.0000E+00  0.0000E+00
REACH    3        0     2  0.1521E+00  0.8625E-02  0.8622E-02  0.3509E-05  0.0000E+00  0.1151E+03  0.1151E+03  0.5757E+03  0.8998E+02  0.8993E+02  0.1992E+02  0.1990E+02  0.1795E+01  0.1794E+01  0.0000E+00  0.2879E-01  0.0000E+00  0.0000E+00  0.4055E-01  0.5076E-01  0.1268E+01  0.1241E+01  0.1474E+05  0.1469E+05  0.1146E+03  0.7124E+02  0.0000E+00  0.0000E+00  0.0000E+00  0.0000E+00  0.0000E+00  0.0000E+00  0.0000E+00  0.0000E+00  0.0000E+00  0.0000E+00  0.0000E+00  0.0000E+00  0.0000E+00  0.0000E+00  0.0000E+00  0.0000E+00  0.0000E+00  0.9176E+02  0.1995E+02  0.0000E+00  0.0000E+00
REACH    4        0     2  0.1036E+00  0.5863E-02  0.5862E-02  0.2569E-06  0.0000E+00  0.6772E+02  0.6772E+02  0.5028E+03  0.7275E+02  0.7275E+02  0.1604E+02  0.1604E+02  0.1242E+01  0.1242E+01  0.0000E+00  0.3613E-02  0.0000E+00  0.0000E+00  0.1483E-01  0.1613E-01  0.1020E+01  0.1017E+01  0.9412E+04  0.9408E+04  0.7963E+02  0.4910E+02  0.0000E+00  0.0000E+00  0.0000E+00  0.0000E+00  0.0000E+00  0.0000E+00  0.0000E+00  0.0000E+00  0.0000E+00  0.0000E+00  0.0000E+00  0.0000E+00  0.0000E+00  0.0000E+00  0.0000E+00  0.0000E+00  0.0000E+00  0.7399E+02  0.1605E+02  0.0000E+00  0.0000E+00
REACH    5        0     2  0.1560E+00  0.8840E-02  0.8839E-02  0.8156E-06  0.0000E+00  0.9521E+02  0.9521E+02  0.4622E+03  0.8402E+02  0.8400E+02  0.1861E+02  0.1861E+02  0.1801E+01  0.1801E+01  0.0000E+00  0.9008E-02  0.0000E+00  0.0000E+00  0.5259E-01  0.5581E-01  0.1192E+01  0.1184E+01  0.1258E+05  0.1256E+05  0.1161E+03  0.7253E+02  0.0000E+00  0.0000E+00  0.0000E+00  0.0000E+00  0.0000E+00  0.0000E+00  0.0000E+00  0.0000E+00  0.0000E+00  0.0000E+00  0.0000E+00  0.0000E+00  0.0000E+00  0.0000E+00  0.0000E+00  0.0000E+00  0.0000E+00  0.8581E+02  0.1867E+02  0.0000E+00  0.0000E+00
REACH    6        0     2  0.1200E+00  0.6796E-02  0.6793E-02  0.2961E-05  0.0000E+00  0.8710E+02  0.8710E+02  0.5576E+03  0.8485E+02  0.8481E+02  0.1872E+02  0.1870E+02  0.1454E+01  0.1453E+01  0.0000E+00  0.2828E-01  0.0000E+00  0.0000E+00  0.1629E-01  0.2637E-01  0.1187E+01  0.1159E+01  0.1179E+05  0.1175E+05  0.9233E+02  0.5683E+02  0.0000E+00  0.0000E+00  0.0000E+00  0.0000E+00  0.0000E+00  0.0000E+00  0.0000E+00  0.0000E+00  0.0000E+00  0.0000E+00  0.0000E+00  0.0000E+00  0.0000E+00  0.0000E+00  0.0000E+00  0.0000E+00  0.0000E+00  0.8629E+02  0.1873E+02  0.0000E+00  0.0000E+00
REACH    7        0     2  0.1150E+00  0.6521E-02  0.6521E-02  0.5552E-06  0.0000E+00  0.1038E+03  0.1038E+03  0.6924E+03  0.8161E+02  0.8160E+02  0.1802E+02  0.1802E+02  0.1414E+01  0.1413E+01  0.0000E+00  0.5317E-02  0.0000E+00  0.0000E+00  0.1405E-01  0.1594E-01  0.1139E+01  0.1134E+01  0.1330E+05  0.1329E+05  0.8866E+02  0.5459E+02  0.0000E+00  0.0000E+00  0.0000E+00  0.0000E+00  0.0000E+00  0.0000E+00  0.0000E+00  0.0000E+00  0.0000E+00  0.0000E+00  0.0000E+00  0.0000E+00  0.0000E+00  0.0000E+00  0.0000E+00  0.0000E+00  0.0000E+00  0.8302E+02  0.1804E+02  0.0000E+00  0.0000E+00
REACH    8        0     2  0.3248E+00  0.1841E-01  0.1841E-01  0.2669E-05  0.0000E+00  0.2206E+03  0.9643E+01  0.8412E+02  0.1857E+03  0.1857E+03  0.4111E+02  0.4109E+02  0.3801E+01  0.3800E+01  0.3780E-01  0.7149E-01  0.0000E+00  0.5838E-04  0.1091E+00  0.1211E+00  0.2590E+01  0.2568E+01  0.2870E+05  0.2865E+05  0.1567E+03  0.1517E+03  0.0000E+00  0.0000E+00  0.0000E+00  0.0000E+00  0.0000E+00  0.0000E+00  0.0000E+00  0.0000E+00  0.0000E+00  0.0000E+00  0.0000E+00  0.0000E+00  0.0000E+00  0.0000E+00  0.0000E+00  0.0000E+00  0.0000E+00  0.1895E+03  0.4121E+02  0.0000E+00  0.0000E+00
REACH    9        0     2  0.5735E+00  0.3217E-01  0.3217E-01  0.4166E-05  0.0000E+00  0.3484E+03  0.2867E+02  0.1110E+03  0.3909E+03  0.3909E+03  0.8611E+02  0.8609E+02  0.6934E+01  0.6933E+01  0.2389E+00  0.2757E+00  0.0000E+00  0.2024E-03  0.1685E+00  0.1815E+00  0.5377E+01  0.5355E+01  0.4922E+05  0.4917E+05  0.2783E+03  0.2686E+03  0.0000E+00  0.0000E+00  0.0000E+00  0.0000E+00  0.0000E+00  0.0000E+00  0.0000E+00  0.0000E+00  0.0000E+00  0.0000E+00  0.0000E+00  0.0000E+00  0.0000E+00  0.0000E+00  0.0000E+00  0.0000E+00  0.0000E+00  0.3981E+03  0.8628E+02  0.0000E+00  0.0000E+00
REACH   10        0     2  0.7677E+00  0.4312E-01  0.4311E-01  0.8098E-05  0.0000E+00  0.1472E+03  0.4019E+02  0.1204E+03  0.5253E+03  0.5252E+03  0.1157E+03  0.1157E+03  0.9270E+01  0.9268E+01  0.2793E+00  0.3490E+00  0.2024E-03  0.5182E-03  0.2113E+00  0.2361E+00  0.7242E+01  0.7199E+01  0.6594E+05  0.6586E+05  0.3867E+03  0.3601E+03  0.0000E+00  0.0000E+00  0.0000E+00  0.0000E+00  0.0000E+00  0.0000E+00  0.0000E+00  0.0000E+00  0.0000E+00  0.0000E+00  0.0000E+00  0.0000E+00  0.0000E+00  0.0000E+00  0.0000E+00  0.0000E+00  0.0000E+00  0.5348E+03  0.1159E+03  0.0000E+00  0.0000E+00
REACH   11        0     2  0.9102E+00  0.5118E-01  0.5118E-01  0.2668E-05  0.0000E+00  0.1434E+03  0.4493E+02  0.1106E+03  0.6259E+03  0.6259E+03  0.1379E+03  0.1379E+03  0.1100E+02  0.1100E+02  0.3773E+00  0.4051E+00  0.5182E-03  0.6602E-03  0.2655E+00  0.2755E+00  0.8580E+01  0.8565E+01  0.7980E+05  0.7976E+05  0.4343E+03  0.4276E+03  0.0000E+00  0.0000E+00  0.0000E+00  0.0000E+00  0.0000E+00  0.0000E+00  0.0000E+00  0.0000E+00  0.0000E+00  0.0000E+00  0.0000E+00  0.0000E+00  0.0000E+00  0.0000E+00  0.0000E+00  0.0000E+00  0.0000E+00  0.6373E+03  0.1382E+03  0.0000E+00  0.0000E+00
REACH   12        0     2  0.1305E+01  0.7353E-01  0.7353E-01  0.9314E-05  0.0000E+00  0.1052E+03  0.6837E+02  0.1224E+03  0.8608E+03  0.8607E+03  0.1898E+03  0.1898E+03  0.1565E+02  0.1565E+02  0.4766E+00  0.5667E+00  0.7186E-03  0.1155E-02  0.4061E+00  0.4383E+00  0.1182E+02  0.1177E+02  0.1153E+06  0.1151E+06  0.6329E+03  0.6122E+03  0.0000E+00  0.0000E+00  0.0000E+00  0.0000E+00  0.0000E+00  0.0000E+00  0.0000E+00  0.0000E+00  0.0000E+00  0.0000E+00  0.0000E+00  0.0000E+00  0.0000E+00  0.0000E+00  0.0000E+00  0.0000E+00  0.0000E+00  0.8769E+03  0.1902E+03  0.0000E+00  0.0000E+00
REACH   13        0     2  0.1675E+01  0.9509E-01  0.9506E-01  0.2609E-04  0.0000E+00  0.4396E+03  0.8012E+02  0.1073E+03  0.1109E+04  0.1109E+04  0.2446E+03  0.2445E+03  0.2023E+02  0.2022E+02  0.5720E+00  0.8964E+00  0.1155E-02  0.1514E-02  0.4895E+00  0.6054E+00  0.1511E+02  0.1498E+02  0.1600E+06  0.1596E+06  0.8807E+03  0.8012E+03  0.0000E+00  0.0000E+00  0.0000E+00  0.0000E+00  0.0000E+00  0.0000E+00  0.0000E+00  0.0000E+00  0.0000E+00  0.0000E+00  0.0000E+00  0.0000E+00  0.0000E+00  0.0000E+00  0.0000E+00  0.0000E+00  0.0000E+00  0.1130E+04  0.2451E+03  0.0000E+00  0.0000E+00
REACH    1        0     3  0.1667E+00  0.2438E-02  0.2436E-02  0.1482E-05  0.0000E+00  0.3100E-07  0.3100E-07  0.3229E-03  0.5169E-06  0.1704E-06  0.1551E-05  0.5891E-06  0.6080E-02  0.6078E-02  0.0000E+00  0.6649E-03  0.0000E+00  0.0000E+00  0.5174E-06  0.5501E-06  0.2793E-15  0.0000E+00  0.0000E+00  0.0000E+00  0.5389E+02  0.5243E+02  0.0000E+00  0.0000E+00  0.0000E+00  0.0000E+00  0.0000E+00  0.0000E+00  0.0000E+00  0.0000E+00  0.0000E+00  0.0000E+00  0.0000E+00  0.0000E+00  0.0000E+00  0.0000E+00  0.0000E+00  0.0000E+00  0.0000E+00  0.6743E-02  0.1139E-05  0.0000E+00  0.0000E+00
REACH    2        0     3  0.3738E+00  0.5470E-02  0.5459E-02  0.1079E-04  0.0000E+00  0.7282E-07  0.7282E-07  0.1954E-03  0.1195E-05  0.3254E-06  0.3483E-05  0.1151E-05  0.1437E-01  0.1428E-01  0.0000E+00  0.4897E-02  0.0000E+00  0.0000E+00  0.1779E-05  0.1167E-05  0.3255E-12  0.0000E+00  0.0000E+00  0.0000E+00  0.1209E+03  0.1175E+03  0.0000E+00  0.0000E+00  0.0000E+00  0.0000E+00  0.0000E+00  0.0000E+00  0.0000E+00  0.0000E+00  0.0000E+00  0.0000E+00  0.0000E+00  0.0000E+00  0.0000E+00  0.0000E+00  0.0000E+00  0.0000E+00  0.0000E+00  0.1918E-01  0.2317E-05  0.0000E+00  0.0000E+00
REACH    3        0     3  0.1521E+00  0.2304E-02  0.2301E-02  0.2677E-05  0.0000E+00  0.2837E-03  0.2837E-03  0.1014E-01  0.1061E-02  0.1060E-02  0.2546E-03  0.2536E-03  0.7536E-02  0.7504E-02  0.0000E+00  0.1184E-02  0.0000E+00  0.0000E+00  0.4327E-04  0.5207E-04  0.1100E-07  0.0000E+00  0.1669E-02  0.1662E-02  0.5092E+02  0.4951E+02  0.0000E+00  0.0000E+00  0.0000E+00  0.0000E+00  0.0000E+00  0.0000E+00  0.0000E+00  0.0000E+00  0.0000E+00  0.0000E+00  0.0000E+00  0.0000E+00  0.0000E+00  0.0000E+00  0.0000E+00  0.0000E+00  0.0000E+00  0.9749E-02  0.3056E-03  0.0000E+00  0.0000E+00
REACH    4        0     3  0.1036E+00  0.1570E-02  0.1569E-02  0.1989E-06  0.0000E+00  0.6085E-07  0.6085E-07  0.6579E-03  0.3212E-06  0.1114E-06  0.9637E-06  0.4252E-06  0.2841E-02  0.2840E-02  0.0000E+00  0.8550E-04  0.0000E+00  0.0000E+00  0.4580E-06  0.3690E-06  0.1040E-12  0.0000E+00  0.0000E+00  0.0000E+00  0.3469E+02  0.3377E+02  0.0000E+00  0.0000E+00  0.0000E+00  0.0000E+00  0.0000E+00  0.0000E+00  0.0000E+00  0.0000E+00  0.0000E+00  0.0000E+00  0.0000E+00  0.0000E+00  0.0000E+00  0.0000E+00  0.0000E+00  0.0000E+00  0.0000E+00  0.2925E-02  0.7942E-06  0.0000E+00  0.0000E+00
REACH    5        0     3  0.1560E+00  0.2363E-02  0.2362E-02  0.6175E-06  0.0000E+00  0.4448E-03  0.4448E-03  0.1500E-01  0.1646E-02  0.1645E-02  0.3945E-03  0.3937E-03  0.9466E-02  0.9458E-02  0.0000E+00  0.2819E-03  0.0000E+00  0.0000E+00  0.6364E-04  0.6578E-04  0.1698E-07  0.0000E+00  0.2612E-02  0.2609E-02  0.5222E+02  0.5082E+02  0.0000E+00  0.0000E+00  0.0000E+00  0.0000E+00  0.0000E+00  0.0000E+00  0.0000E+00  0.0000E+00  0.0000E+00  0.0000E+00  0.0000E+00  0.0000E+00  0.0000E+00  0.0000E+00  0.0000E+00  0.0000E+00  0.0000E+00  0.1139E-01  0.4595E-03  0.0000E+00  0.0000E+00
REACH    6        0     3  0.1200E+00  0.1813E-02  0.1811E-02  0.2234E-05  0.0000E+00  0.3100E-07  0.3100E-07  0.1044E-02  0.3721E-06  0.7927E-07  0.1116E-05  0.2710E-06  0.2983E-02  0.2981E-02  0.0000E+00  0.8945E-03  0.0000E+00  0.0000E+00  0.3725E-06  0.3062E-06  0.5689E-15  0.0000E+00  0.0000E+00  0.0000E+00  0.4008E+02  0.3897E+02  0.0000E+00  0.0000E+00  0.0000E+00  0.0000E+00  0.0000E+00  0.0000E+00  0.0000E+00  0.0000E+00  0.0000E+00  0.0000E+00  0.0000E+00  0.0000E+00  0.0000E+00  0.0000E+00  0.0000E+00  0.0000E+00  0.0000E+00  0.3875E-02  0.5772E-06  0.0000E+00  0.0000E+00
REACH    7        0     3  0.1150E+00  0.1737E-02  0.1737E-02  0.4180E-06  0.0000E+00  0.3100E-07  0.3100E-07  0.8075E-03  0.3566E-06  0.1232E-06  0.1070E-05  0.4279E-06  0.2734E-02  0.2734E-02  0.0000E+00  0.1830E-03  0.0000E+00  0.0000E+00  0.3569E-06  0.3892E-06  0.6274E-15  0.0000E+00  0.0000E+00  0.0000E+00  0.3840E+02  0.3737E+02  0.0000E+00  0.0000E+00  0.0000E+00  0.0000E+00  0.0000E+00  0.0000E+00  0.0000E+00  0.0000E+00  0.0000E+00  0.0000E+00  0.0000E+00  0.0000E+00  0.0000E+00  0.0000E+00  0.0000E+00  0.0000E+00  0.0000E+00  0.2917E-02  0.8171E-06  0.0000E+00  0.0000E+00
REACH    8        0     3  0.3248E+00  0.4918E-02  0.4916E-02  0.2113E-05  0.0000E+00  0.7285E-03  0.1874E+01  0.6028E+02  0.2706E-02  0.2705E-02  0.6474E-03  0.6470E-03  0.1741E-01  0.1738E-01  0.1466E-02  0.2389E-02  0.0000E+00  0.4777E-04  0.1179E-03  0.1270E-03  0.8472E-16  0.0000E+00  0.4270E-02  0.4263E-02  0.1060E+03  0.1058E+03  0.0000E+00  0.0000E+00  0.0000E+00  0.0000E+00  0.0000E+00  0.0000E+00  0.0000E+00  0.0000E+00  0.0000E+00  0.0000E+00  0.0000E+00  0.0000E+00  0.0000E+00  0.0000E+00  0.0000E+00  0.0000E+00  0.0000E+00  0.2252E-01  0.7740E-03  0.0000E+00  0.0000E+00
REACH    9        0     3  0.5735E+00  0.8385E-02  0.8381E-02  0.3853E-05  0.0000E+00  0.1545E-06  0.3692E+01  0.6860E+02  0.5979E-06  0.4753E-06  0.2046E-05  0.1741E-05  0.2206E-01  0.2203E-01  0.5562E-02  0.7184E-02  0.0000E+00  0.1632E-03  0.2198E-05  0.5068E-05  0.9176E-13  0.0000E+00  0.0000E+00  0.0000E+00  0.1807E+03  0.1803E+03  0.0000E+00  0.0000E+00  0.0000E+00  0.0000E+00  0.0000E+00  0.0000E+00  0.0000E+00  0.0000E+00  0.0000E+00  0.0000E+00  0.0000E+00  0.0000E+00  0.0000E+00  0.0000E+00  0.0000E+00  0.0000E+00  0.0000E+00  0.2938E-01  0.6808E-05  0.0000E+00  0.0000E+00
REACH   10        0     3  0.7677E+00  0.1129E-01  0.1128E-01  0.7514E-05  0.0000E+00  0.3692E+01  0.5468E+01  0.7531E+02  0.9039E-06  0.6368E-06  0.3014E-05  0.2269E-05  0.2819E-01  0.2817E-01  0.7269E-02  0.1046E-01  0.1632E-03  0.4198E-03  0.5910E-05  0.1568E-04  0.1412E-13  0.0000E+00  0.0000E+00  0.0000E+00  0.2437E+03  0.2428E+03  0.0000E+00  0.0000E+00  0.0000E+00  0.0000E+00  0.0000E+00  0.0000E+00  0.0000E+00  0.0000E+00  0.0000E+00  0.0000E+00  0.0000E+00  0.0000E+00  0.0000E+00  0.0000E+00  0.0000E+00  0.0000E+00  0.0000E+00  0.3904E-01  0.1795E-04  0.0000E+00  0.0000E+00
REACH   11        0     3  0.9102E+00  0.1343E-01  0.1343E-01  0.2460E-05  0.0000E+00  0.5468E+01  0.6003E+01  0.7450E+02  0.7857E-06  0.6998E-06  0.2749E-05  0.2540E-05  0.3171E-01  0.3173E-01  0.1135E-01  0.1234E-01  0.4198E-03  0.5319E-03  0.1606E-04  0.4712E-04  0.1205E-15  0.0000E+00  0.0000E+00  0.0000E+00  0.2892E+03  0.2890E+03  0.0000E+00  0.0000E+00  0.0000E+00  0.0000E+00  0.0000E+00  0.0000E+00  0.0000E+00  0.0000E+00  0.0000E+00  0.0000E+00  0.0000E+00  0.0000E+00  0.0000E+00  0.0000E+00  0.0000E+00  0.0000E+00  0.0000E+00  0.4460E-01  0.4966E-04  0.0000E+00  0.0000E+00
REACH   12        0     3  0.1305E+01  0.1940E-01  0.1939E-01  0.8627E-05  0.0000E+00  0.7877E+01  0.9814E+01  0.8409E+02  0.2706E-02  0.2705E-02  0.6502E-03  0.6491E-03  0.5086E-01  0.5090E-01  0.1473E-01  0.1824E-01  0.5797E-03  0.9310E-03  0.1743E-03  0.2965E-03  0.3515E-15  0.0000E+00  0.4263E-02  0.4252E-02  0.4180E+03  0.4172E+03  0.0000E+00  0.0000E+00  0.0000E+00  0.0000E+00  0.0000E+00  0.0000E+00  0.0000E+00  0.0000E+00  0.0000E+00  0.0000E+00  0.0000E+00  0.0000E+00  0.0000E+00  0.0000E+00  0.0000E+00  0.0000E+00  0.0000E+00  0.7277E-01  0.9456E-03  0.0000E+00  0.0000E+00
REACH   13        0     3  0.1675E+01  0.2536E-01  0.2533E-01  0.2414E-04  0.0000E+00  0.9847E+01  0.1055E+02  0.7612E+02  0.7395E-01  0.7386E-01  0.1639E-01  0.1636E-01  0.3150E+00  0.3142E+00  0.1842E-01  0.3004E-01  0.9310E-03  0.1146E-02  0.4634E-03  0.9039E-03  0.1573E-02  0.1457E-02  0.8524E+01  0.8459E+01  0.5478E+03  0.5308E+03  0.0000E+00  0.0000E+00  0.0000E+00  0.0000E+00  0.0000E+00  0.0000E+00  0.0000E+00  0.0000E+00  0.0000E+00  0.0000E+00  0.0000E+00  0.0000E+00  0.0000E+00  0.0000E+00  0.0000E+00  0.0000E+00  0.0000E+00  0.4193E+00  0.1727E-01  0.0000E+00  0.0000E+00
REACH    1        0     4  0.1667E+00  0.8861E-02  0.8859E-02  0.2239E-05  0.0000E+00  0.2696E+00  0.2696E+00  0.1199E+01  0.4361E+00  0.4359E+00  0.9451E-01  0.9447E-01  0.4761E+00  0.4760E+00  0.0000E+00  0.7634E-03  0.0000E+00  0.0000E+00  0.1178E-01  0.1180E-01  0.1938E-02  0.1921E-02  0.3396E+02  0.3392E+02  0.1721E+03  0.1436E+03  0.0000E+00  0.0000E+00  0.0000E+00  0.0000E+00  0.0000E+00  0.0000E+00  0.0000E+00  0.0000E+00  0.0000E+00  0.0000E+00  0.0000E+00  0.0000E+00  0.0000E+00  0.0000E+00  0.0000E+00  0.0000E+00  0.0000E+00  0.9128E+00  0.1063E+00  0.0000E+00  0.0000E+00
REACH    2        0     4  0.3738E+00  0.1984E-01  0.1983E-01  0.1127E-04  0.0000E+00  0.6621E+00  0.6621E+00  0.1313E+01  0.1002E+01  0.1002E+01  0.2173E+00  0.2171E+00  0.1065E+01  0.1065E+01  0.0000E+00  0.5405E-02  0.0000E+00  0.0000E+00  0.2535E-01  0.2565E-01  0.4514E-02  0.4408E-02  0.8371E+02  0.8335E+02  0.3829E+03  0.3147E+03  0.0000E+00  0.0000E+00  0.0000E+00  0.0000E+00  0.0000E+00  0.0000E+00  0.0000E+00  0.0000E+00  0.0000E+00  0.0000E+00  0.0000E+00  0.0000E+00  0.0000E+00  0.0000E+00  0.0000E+00  0.0000E+00  0.0000E+00  0.2072E+01  0.2427E+00  0.0000E+00  0.0000E+00
REACH    3        0     4  0.1521E+00  0.8267E-02  0.8264E-02  0.3450E-05  0.0000E+00  0.3912E+00  0.3912E+00  0.1900E+01  0.7049E+00  0.7046E+00  0.1610E+00  0.1609E+00  0.3483E+00  0.3482E+00  0.0000E+00  0.1423E-02  0.0000E+00  0.0000E+00  0.1920E-01  0.1931E-01  0.4673E-02  0.4590E-02  0.5272E+02  0.5259E+02  0.1535E+03  0.1153E+03  0.0000E+00  0.0000E+00  0.0000E+00  0.0000E+00  0.0000E+00  0.0000E+00  0.0000E+00  0.0000E+00  0.0000E+00  0.0000E+00  0.0000E+00  0.0000E+00  0.0000E+00  0.0000E+00  0.0000E+00  0.0000E+00  0.0000E+00  0.1054E+01  0.1802E+00  0.0000E+00  0.0000E+00
REACH    4        0     4  0.1036E+00  0.5601E-02  0.5601E-02  0.3063E-06  0.0000E+00  0.1714E+00  0.1714E+00  0.1231E+01  0.2586E+00  0.2586E+00  0.5603E-01  0.5602E-01  0.2855E+00  0.2855E+00  0.0000E+00  0.1173E-03  0.0000E+00  0.0000E+00  0.6656E-02  0.6664E-02  0.1025E-02  0.1021E-02  0.2038E+02  0.2036E+02  0.1094E+03  0.9171E+02  0.0000E+00  0.0000E+00  0.0000E+00  0.0000E+00  0.0000E+00  0.0000E+00  0.0000E+00  0.0000E+00  0.0000E+00  0.0000E+00  0.0000E+00  0.0000E+00  0.0000E+00  0.0000E+00  0.0000E+00  0.0000E+00  0.0000E+00  0.5442E+00  0.6269E-01  0.0000E+00  0.0000E+00
REACH    5        0     4  0.1560E+00  0.8503E-02  0.8502E-02  0.9399E-06  0.0000E+00  0.3978E+00  0.3978E+00  0.1876E+01  0.8837E+00  0.8835E+00  0.2044E+00  0.2043E+00  0.3265E+00  0.3264E+00  0.0000E+00  0.3508E-03  0.0000E+00  0.0000E+00  0.2564E-01  0.2567E-01  0.6425E-02  0.6399E-02  0.5706E+02  0.5702E+02  0.1564E+03  0.1156E+03  0.0000E+00  0.0000E+00  0.0000E+00  0.0000E+00  0.0000E+00  0.0000E+00  0.0000E+00  0.0000E+00  0.0000E+00  0.0000E+00  0.0000E+00  0.0000E+00  0.0000E+00  0.0000E+00  0.0000E+00  0.0000E+00  0.0000E+00  0.1210E+01  0.2300E+00  0.0000E+00  0.0000E+00
REACH    6        0     4  0.1200E+00  0.6489E-02  0.6486E-02  0.3439E-05  0.0000E+00  0.2204E+00  0.2204E+00  0.1366E+01  0.3063E+00  0.3061E+00  0.6638E-01  0.6633E-01  0.3303E+00  0.3302E+00  0.0000E+00  0.1093E-02  0.0000E+00  0.0000E+00  0.6939E-02  0.6979E-02  0.1211E-02  0.1189E-02  0.2620E+02  0.2612E+02  0.1259E+03  0.1039E+03  0.0000E+00  0.0000E+00  0.0000E+00  0.0000E+00  0.0000E+00  0.0000E+00  0.0000E+00  0.0000E+00  0.0000E+00  0.0000E+00  0.0000E+00  0.0000E+00  0.0000E+00  0.0000E+00  0.0000E+00  0.0000E+00  0.0000E+00  0.6374E+00  0.7331E-01  0.0000E+00  0.0000E+00
REACH    7        0     4  0.1150E+00  0.6218E-02  0.6217E-02  0.6483E-06  0.0000E+00  0.2627E+00  0.2627E+00  0.1699E+01  0.3034E+00  0.3033E+00  0.6579E-01  0.6578E-01  0.3147E+00  0.3147E+00  0.0000E+00  0.2298E-03  0.0000E+00  0.0000E+00  0.5513E-02  0.5525E-02  0.1199E-02  0.1192E-02  0.3123E+02  0.3121E+02  0.1189E+03  0.9460E+02  0.0000E+00  0.0000E+00  0.0000E+00  0.0000E+00  0.0000E+00  0.0000E+00  0.0000E+00  0.0000E+00  0.0000E+00  0.0000E+00  0.0000E+00  0.0000E+00  0.0000E+00  0.0000E+00  0.0000E+00  0.0000E+00  0.0000E+00  0.6182E+00  0.7130E-01  0.0000E+00  0.0000E+00
REACH    8        0     4  0.3248E+00  0.1768E-01  0.1767E-01  0.2668E-05  0.0000E+00  0.8149E+00  0.1181E+02  0.8078E+02  0.1630E+01  0.1629E+01  0.3742E+00  0.3741E+00  0.7212E+00  0.7212E+00  0.1773E-02  0.2981E-02  0.0000E+00  0.3446E-04  0.4609E-01  0.4621E-01  0.1115E-01  0.1108E-01  0.1127E+03  0.1126E+03  0.2488E+03  0.2456E+03  0.0000E+00  0.0000E+00  0.0000E+00  0.0000E+00  0.0000E+00  0.0000E+00  0.0000E+00  0.0000E+00  0.0000E+00  0.0000E+00  0.0000E+00  0.0000E+00  0.0000E+00  0.0000E+00  0.0000E+00  0.0000E+00  0.0000E+00  0.2353E+01  0.4203E+00  0.0000E+00  0.0000E+00
REACH    9        0     4  0.5735E+00  0.3044E-01  0.3043E-01  0.3973E-05  0.0000E+00  0.9750E+00  0.3263E+02  0.1082E+03  0.1520E+01  0.1519E+01  0.3293E+00  0.3293E+00  0.1636E+01  0.1636E+01  0.6168E-02  0.7974E-02  0.0000E+00  0.1180E-03  0.4053E-01  0.4064E-01  0.6703E-02  0.6669E-02  0.1228E+03  0.1227E+03  0.4928E+03  0.4879E+03  0.0000E+00  0.0000E+00  0.0000E+00  0.0000E+00  0.0000E+00  0.0000E+00  0.0000E+00  0.0000E+00  0.0000E+00  0.0000E+00  0.0000E+00  0.0000E+00  0.0000E+00  0.0000E+00  0.0000E+00  0.0000E+00  0.0000E+00  0.3163E+01  0.3699E+00  0.0000E+00  0.0000E+00
REACH   10        0     4  0.7677E+00  0.4087E-01  0.4086E-01  0.7745E-05  0.0000E+00  0.3294E+02  0.4431E+02  0.1125E+03  0.2008E+01  0.2008E+01  0.4351E+00  0.4350E+00  0.2178E+01  0.2178E+01  0.8092E-02  0.1166E-01  0.1180E-03  0.2941E-03  0.5395E-01  0.5416E-01  0.8684E-02  0.8621E-02  0.1602E+03  0.1599E+03  0.6740E+03  0.6590E+03  0.0000E+00  0.0000E+00  0.0000E+00  0.0000E+00  0.0000E+00  0.0000E+00  0.0000E+00  0.0000E+00  0.0000E+00  0.0000E+00  0.0000E+00  0.0000E+00  0.0000E+00  0.0000E+00  0.0000E+00  0.0000E+00  0.0000E+00  0.4197E+01  0.4891E+00  0.0000E+00  0.0000E+00
REACH   11        0     4  0.9102E+00  0.4856E-01  0.4856E-01  0.2554E-05  0.0000E+00  0.4457E+02  0.5127E+02  0.1061E+03  0.2371E+01  0.2371E+01  0.5137E+00  0.5137E+00  0.2570E+01  0.2570E+01  0.1276E-01  0.1391E-01  0.2941E-03  0.3684E-03  0.6245E-01  0.6255E-01  0.1004E-01  0.1002E-01  0.1909E+03  0.1908E+03  0.7865E+03  0.7826E+03  0.0000E+00  0.0000E+00  0.0000E+00  0.0000E+00  0.0000E+00  0.0000E+00  0.0000E+00  0.0000E+00  0.0000E+00  0.0000E+00  0.0000E+00  0.0000E+00  0.0000E+00  0.0000E+00  0.0000E+00  0.0000E+00  0.0000E+00  0.4955E+01  0.5762E+00  0.0000E+00  0.0000E+00
REACH   12        0     4  0.1305E+01  0.6999E-01  0.6999E-01  0.8896E-05  0.0000E+00  0.6321E+02  0.7562E+02  0.1156E+03  0.4178E+01  0.4177E+01  0.9263E+00  0.9261E+00  0.3483E+01  0.3483E+01  0.1689E-01  0.2104E-01  0.4029E-03  0.6306E-03  0.1128E+00  0.1131E+00  0.2180E-01  0.2169E-01  0.3186E+03  0.3183E+03  0.1101E+04  0.1084E+04  0.0000E+00  0.0000E+00  0.0000E+00  0.0000E+00  0.0000E+00  0.0000E+00  0.0000E+00  0.0000E+00  0.0000E+00  0.0000E+00  0.0000E+00  0.0000E+00  0.0000E+00  0.0000E+00  0.0000E+00  0.0000E+00  0.0000E+00  0.7682E+01  0.1039E+01  0.0000E+00  0.0000E+00
REACH   13        0     4  0.1675E+01  0.8966E-01  0.8963E-01  0.2492E-04  0.0000E+00  0.7679E+02  0.9093E+02  0.1051E+03  0.5611E+01  0.5609E+01  0.1239E+01  0.1238E+01  0.4486E+01  0.4485E+01  0.2127E-01  0.3403E-01  0.6306E-03  0.9628E-03  0.1396E+00  0.1408E+00  0.4514E-01  0.4457E-01  0.5090E+03  0.5075E+03  0.1434E+04  0.1293E+04  0.0000E+00  0.0000E+00  0.0000E+00  0.0000E+00  0.0000E+00  0.0000E+00  0.0000E+00  0.0000E+00  0.0000E+00  0.0000E+00  0.0000E+00  0.0000E+00  0.0000E+00  0.0000E+00  0.0000E+00  0.0000E+00  0.0000E+00  0.1013E+02  0.1379E+01  0.0000E+00  0.0000E+00
REACH    1        0     5  0.1667E+00  0.4910E-02  0.4909E-02  0.1743E-05  0.0000E+00  0.1617E-01  0.1617E-01  0.1855E+00  0.2620E-01  0.2619E-01  0.5681E-02  0.5678E-02  0.8997E+00  0.8994E+00  0.0000E+00  0.7017E-03  0.0000E+00  0.0000E+00  0.8592E-03  0.8625E-03  0.1188E-04  0.1169E-04  0.6077E+00  0.6069E+00  0.1087E+03  0.1052E+03  0.0000E+00  0.0000E+00  0.0000E+00  0.0000E+00  0.0000E+00  0.0000E+00  0.0000E+00  0.0000E+00  0.0000E+00  0.0000E+00  0.0000E+00  0.0000E+00  0.0000E+00  0.0000E+00  0.0000E+00  0.0000E+00  0.0000E+00  0.9263E+00  0.6540E-02  0.0000E+00  0.0000E+00
REACH    2        0     5  0.3738E+00  0.1099E-01  0.1098E-01  0.1267E-04  0.0000E+00  0.4005E-01  0.4005E-01  0.2051E+00  0.6073E-01  0.6068E-01  0.1317E-01  0.1316E-01  0.2011E+01  0.2009E+01  0.0000E+00  0.5284E-02  0.0000E+00  0.0000E+00  0.1992E-02  0.2131E-02  0.2889E-04  0.2737E-04  0.1521E+01  0.1513E+01  0.2431E+03  0.2351E+03  0.0000E+00  0.0000E+00  0.0000E+00  0.0000E+00  0.0000E+00  0.0000E+00  0.0000E+00  0.0000E+00  0.0000E+00  0.0000E+00  0.0000E+00  0.0000E+00  0.0000E+00  0.0000E+00  0.0000E+00  0.0000E+00  0.0000E+00  0.2075E+01  0.1529E-01  0.0000E+00  0.0000E+00
REACH    3        0     5  0.1521E+00  0.4485E-02  0.4482E-02  0.3128E-05  0.0000E+00  0.1865E-01  0.1865E-01  0.2397E+00  0.3009E-01  0.3008E-01  0.6806E-02  0.6801E-02  0.6607E+00  0.6603E+00  0.0000E+00  0.1257E-02  0.0000E+00  0.0000E+00  0.1087E-02  0.1140E-02  0.1926E-04  0.1853E-04  0.6907E+00  0.6888E+00  0.9914E+02  0.9586E+02  0.0000E+00  0.0000E+00  0.0000E+00  0.0000E+00  0.0000E+00  0.0000E+00  0.0000E+00  0.0000E+00  0.0000E+00  0.0000E+00  0.0000E+00  0.0000E+00  0.0000E+00  0.0000E+00  0.0000E+00  0.0000E+00  0.0000E+00  0.6917E+00  0.7941E-02  0.0000E+00  0.0000E+00
REACH    4        0     5  0.1036E+00  0.3126E-02  0.3125E-02  0.2386E-06  0.0000E+00  0.8993E-02  0.8993E-02  0.1646E+00  0.1360E-01  0.1360E-01  0.2948E-02  0.2947E-02  0.5498E+00  0.5498E+00  0.0000E+00  0.9033E-04  0.0000E+00  0.0000E+00  0.4500E-03  0.4499E-03  0.4468E-05  0.4449E-05  0.2827E+00  0.2826E+00  0.6923E+02  0.6717E+02  0.0000E+00  0.0000E+00  0.0000E+00  0.0000E+00  0.0000E+00  0.0000E+00  0.0000E+00  0.0000E+00  0.0000E+00  0.0000E+00  0.0000E+00  0.0000E+00  0.0000E+00  0.0000E+00  0.0000E+00  0.0000E+00  0.0000E+00  0.5635E+00  0.3397E-02  0.0000E+00  0.0000E+00
REACH    5        0     5  0.1560E+00  0.4552E-02  0.4551E-02  0.7313E-06  0.0000E+00  0.1794E-01  0.1794E-01  0.2280E+00  0.3563E-01  0.3562E-01  0.8162E-02  0.8160E-02  0.6123E+00  0.6122E+00  0.0000E+00  0.2928E-03  0.0000E+00  0.0000E+00  0.1363E-02  0.1379E-02  0.2629E-04  0.2597E-04  0.7290E+00  0.7286E+00  0.1006E+03  0.9729E+02  0.0000E+00  0.0000E+00  0.0000E+00  0.0000E+00  0.0000E+00  0.0000E+00  0.0000E+00  0.0000E+00  0.0000E+00  0.0000E+00  0.0000E+00  0.0000E+00  0.0000E+00  0.0000E+00  0.0000E+00  0.0000E+00  0.0000E+00  0.6481E+00  0.9539E-02  0.0000E+00  0.0000E+00
REACH    6        0     5  0.1200E+00  0.3623E-02  0.3620E-02  0.2636E-05  0.0000E+00  0.1154E-01  0.1154E-01  0.1822E+00  0.1608E-01  0.1607E-01  0.3487E-02  0.3484E-02  0.6368E+00  0.6364E+00  0.0000E+00  0.1029E-02  0.0000E+00  0.0000E+00  0.4680E-03  0.4732E-03  0.5148E-05  0.4976E-05  0.3620E+00  0.3609E+00  0.8022E+02  0.7775E+02  0.0000E+00  0.0000E+00  0.0000E+00  0.0000E+00  0.0000E+00  0.0000E+00  0.0000E+00  0.0000E+00  0.0000E+00  0.0000E+00  0.0000E+00  0.0000E+00  0.0000E+00  0.0000E+00  0.0000E+00  0.0000E+00  0.0000E+00  0.6535E+00  0.3957E-02  0.0000E+00  0.0000E+00
REACH    7        0     5  0.1150E+00  0.3471E-02  0.3470E-02  0.4942E-06  0.0000E+00  0.1376E-01  0.1376E-01  0.2267E+00  0.1593E-01  0.1593E-01  0.3458E-02  0.3457E-02  0.6075E+00  0.6074E+00  0.0000E+00  0.1926E-03  0.0000E+00  0.0000E+00  0.3928E-03  0.3935E-03  0.5076E-05  0.5042E-05  0.4318E+00  0.4315E+00  0.7680E+02  0.7440E+02  0.0000E+00  0.0000E+00  0.0000E+00  0.0000E+00  0.0000E+00  0.0000E+00  0.0000E+00  0.0000E+00  0.0000E+00  0.0000E+00  0.0000E+00  0.0000E+00  0.0000E+00  0.0000E+00  0.0000E+00  0.0000E+00  0.0000E+00  0.6235E+00  0.3850E-02  0.0000E+00  0.0000E+00
REACH    8        0     5  0.3248E+00  0.9540E-02  0.9538E-02  0.2493E-05  0.0000E+00  0.3796E-01  0.4692E+01  0.9775E+02  0.6788E-01  0.6786E-01  0.1543E-01  0.1543E-01  0.1362E+01  0.1362E+01  0.1550E-02  0.2582E-02  0.0000E+00  0.2801E-05  0.2592E-02  0.2654E-02  0.4521E-04  0.4468E-04  0.1460E+01  0.1458E+01  0.2044E+03  0.2040E+03  0.0000E+00  0.0000E+00  0.0000E+00  0.0000E+00  0.0000E+00  0.0000E+00  0.0000E+00  0.0000E+00  0.0000E+00  0.0000E+00  0.0000E+00  0.0000E+00  0.0000E+00  0.0000E+00  0.0000E+00  0.0000E+00  0.0000E+00  0.1432E+01  0.1808E-01  0.0000E+00  0.0000E+00
REACH    9        0     5  0.5735E+00  0.1685E-01  0.1685E-01  0.4503E-05  0.0000E+00  0.5887E-01  0.1029E+02  0.1173E+03  0.9190E-01  0.9189E-01  0.1992E-01  0.1992E-01  0.3087E+01  0.3086E+01  0.5985E-02  0.7883E-02  0.0000E+00  0.1347E-04  0.3300E-02  0.3397E-02  0.4171E-04  0.4119E-04  0.2222E+01  0.2219E+01  0.3618E+03  0.3611E+03  0.0000E+00  0.0000E+00  0.0000E+00  0.0000E+00  0.0000E+00  0.0000E+00  0.0000E+00  0.0000E+00  0.0000E+00  0.0000E+00  0.0000E+00  0.0000E+00  0.0000E+00  0.0000E+00  0.0000E+00  0.0000E+00  0.0000E+00  0.3186E+01  0.2332E-01  0.0000E+00  0.0000E+00
REACH   10        0     5  0.7677E+00  0.2266E-01  0.2265E-01  0.8764E-05  0.0000E+00  0.1031E+02  0.1529E+02  0.1289E+03  0.1188E+00  0.1188E+00  0.2576E-01  0.2575E-01  0.4124E+01  0.4122E+01  0.7974E-02  0.1170E-01  0.1347E-04  0.3928E-04  0.4386E-02  0.4590E-02  0.5136E-04  0.5045E-04  0.2790E+01  0.2785E+01  0.4876E+03  0.4856E+03  0.0000E+00  0.0000E+00  0.0000E+00  0.0000E+00  0.0000E+00  0.0000E+00  0.0000E+00  0.0000E+00  0.0000E+00  0.0000E+00  0.0000E+00  0.0000E+00  0.0000E+00  0.0000E+00  0.0000E+00  0.0000E+00  0.0000E+00  0.4253E+01  0.3034E-01  0.0000E+00  0.0000E+00
REACH   11        0     5  0.9102E+00  0.2695E-01  0.2694E-01  0.2885E-05  0.0000E+00  0.1530E+02  0.1658E+02  0.1207E+03  0.1379E+00  0.1379E+00  0.2988E-01  0.2987E-01  0.4878E+01  0.4877E+01  0.1273E-01  0.1396E-01  0.3928E-04  0.5086E-04  0.5152E-02  0.5225E-02  0.5639E-04  0.5613E-04  0.3213E+01  0.3211E+01  0.5784E+03  0.5779E+03  0.0000E+00  0.0000E+00  0.0000E+00  0.0000E+00  0.0000E+00  0.0000E+00  0.0000E+00  0.0000E+00  0.0000E+00  0.0000E+00  0.0000E+00  0.0000E+00  0.0000E+00  0.0000E+00  0.0000E+00  0.0000E+00  0.0000E+00  0.5029E+01  0.3510E-01  0.0000E+00  0.0000E+00
REACH   12        0     5  0.1305E+01  0.3858E-01  0.3857E-01  0.1008E-04  0.0000E+00  0.2128E+02  0.2706E+02  0.1384E+03  0.2151E+00  0.2150E+00  0.4732E-01  0.4731E-01  0.6609E+01  0.6607E+01  0.1654E-01  0.2087E-01  0.5366E-04  0.9050E-04  0.8151E-02  0.8420E-02  0.1038E-03  0.1019E-03  0.4880E+01  0.4873E+01  0.8285E+03  0.8268E+03  0.0000E+00  0.0000E+00  0.0000E+00  0.0000E+00  0.0000E+00  0.0000E+00  0.0000E+00  0.0000E+00  0.0000E+00  0.0000E+00  0.0000E+00  0.0000E+00  0.0000E+00  0.0000E+00  0.0000E+00  0.0000E+00  0.0000E+00  0.6843E+01  0.5573E-01  0.0000E+00  0.0000E+00
REACH   13        0     5  0.1675E+01  0.4954E-01  0.4951E-01  0.2820E-04  0.0000E+00  0.2715E+02  0.2914E+02  0.1228E+03  0.3508E+00  0.3506E+00  0.7710E-01  0.7702E-01  0.8561E+01  0.8556E+01  0.2106E-01  0.3325E-01  0.9050E-04  0.2032E-03  0.1131E-01  0.1217E-01  0.3121E-02  0.2981E-02  0.1907E+02  0.1898E+02  0.1067E+04  0.1041E+04  0.0000E+00  0.0000E+00  0.0000E+00  0.0000E+00  0.0000E+00  0.0000E+00  0.0000E+00  0.0000E+00  0.0000E+00  0.0000E+00  0.0000E+00  0.0000E+00  0.0000E+00  0.0000E+00  0.0000E+00  0.0000E+00  0.0000E+00  0.8940E+01  0.8919E-01  0.0000E+00  0.0000E+00
REACH    1        0     6  0.1667E+00  0.1439E-01  0.1439E-01  0.1564E-05  0.0000E+00  0.2678E+01  0.2678E+01  0.4742E+01  0.4325E+01  0.4324E+01  0.9385E+00  0.9383E+00  0.3154E+01  0.3154E+01  0.0000E+00  0.1314E-02  0.0000E+00  0.0000E+00  0.6387E-01  0.6409E-01  0.8315E-01  0.8256E-01  0.7013E+03  0.7004E+03  0.1784E+03  0.1129E+03  0.0000E+00  0.0000E+00  0.0000E+00  0.0000E+00  0.0000E+00  0.0000E+00  0.0000E+00  0.0000E+00  0.0000E+00  0.0000E+00  0.0000E+00  0.0000E+00  0.0000E+00  0.0000E+00  0.0000E+00  0.0000E+00  0.0000E+00  0.7479E+01  0.1002E+01  0.0000E+00  0.0000E+00
REACH    2        0     6  0.3738E+00  0.3224E-01  0.3223E-01  0.1098E-04  0.0000E+00  0.6581E+01  0.6581E+01  0.5213E+01  0.9948E+01  0.9940E+01  0.2160E+01  0.2157E+01  0.7034E+01  0.7031E+01  0.0000E+00  0.1081E-01  0.0000E+00  0.0000E+00  0.1387E+00  0.1409E+00  0.1919E+00  0.1878E+00  0.1727E+04  0.1717E+04  0.3973E+03  0.2506E+03  0.0000E+00  0.0000E+00  0.0000E+00  0.0000E+00  0.0000E+00  0.0000E+00  0.0000E+00  0.0000E+00  0.0000E+00  0.0000E+00  0.0000E+00  0.0000E+00  0.0000E+00  0.0000E+00  0.0000E+00  0.0000E+00  0.0000E+00  0.1698E+02  0.2298E+01  0.0000E+00  0.0000E+00
REACH    3        0     6  0.1521E+00  0.1315E-01  0.1315E-01  0.2837E-05  0.0000E+00  0.3134E+01  0.3134E+01  0.5991E+01  0.4160E+01  0.4158E+01  0.9228E+00  0.9222E+00  0.2615E+01  0.2614E+01  0.0000E+00  0.2448E-02  0.0000E+00  0.0000E+00  0.6300E-01  0.6349E-01  0.7730E-01  0.7617E-01  0.8018E+03  0.7996E+03  0.1677E+03  0.1048E+03  0.0000E+00  0.0000E+00  0.0000E+00  0.0000E+00  0.0000E+00  0.0000E+00  0.0000E+00  0.0000E+00  0.0000E+00  0.0000E+00  0.0000E+00  0.0000E+00  0.0000E+00  0.0000E+00  0.0000E+00  0.0000E+00  0.0000E+00  0.6775E+01  0.9857E+00  0.0000E+00  0.0000E+00
REACH    4        0     6  0.1036E+00  0.9034E-02  0.9033E-02  0.2176E-06  0.0000E+00  0.1709E+01  0.1709E+01  0.4693E+01  0.2578E+01  0.2578E+01  0.5594E+00  0.5593E+00  0.2037E+01  0.2037E+01  0.0000E+00  0.1903E-03  0.0000E+00  0.0000E+00  0.3723E-01  0.3726E-01  0.4703E-01  0.4694E-01  0.4359E+03  0.4357E+03  0.1159E+03  0.7362E+02  0.0000E+00  0.0000E+00  0.0000E+00  0.0000E+00  0.0000E+00  0.0000E+00  0.0000E+00  0.0000E+00  0.0000E+00  0.0000E+00  0.0000E+00  0.0000E+00  0.0000E+00  0.0000E+00  0.0000E+00  0.0000E+00  0.0000E+00  0.4615E+01  0.5966E+00  0.0000E+00  0.0000E+00
REACH    5        0     6  0.1560E+00  0.1344E-01  0.1344E-01  0.6566E-06  0.0000E+00  0.2760E+01  0.2760E+01  0.5224E+01  0.4349E+01  0.4349E+01  0.9743E+00  0.9742E+00  0.2513E+01  0.2513E+01  0.0000E+00  0.5721E-03  0.0000E+00  0.0000E+00  0.7390E-01  0.7402E-01  0.8162E-01  0.8135E-01  0.7081E+03  0.7077E+03  0.1714E+03  0.1072E+03  0.0000E+00  0.0000E+00  0.0000E+00  0.0000E+00  0.0000E+00  0.0000E+00  0.0000E+00  0.0000E+00  0.0000E+00  0.0000E+00  0.0000E+00  0.0000E+00  0.0000E+00  0.0000E+00  0.0000E+00  0.0000E+00  0.0000E+00  0.6862E+01  0.1048E+01  0.0000E+00  0.0000E+00
REACH    6        0     6  0.1200E+00  0.1047E-01  0.1047E-01  0.2409E-05  0.0000E+00  0.2197E+01  0.2197E+01  0.5201E+01  0.3049E+01  0.3048E+01  0.6619E+00  0.6615E+00  0.2365E+01  0.2365E+01  0.0000E+00  0.1973E-02  0.0000E+00  0.0000E+00  0.4076E-01  0.4109E-01  0.5545E-01  0.5455E-01  0.5600E+03  0.5583E+03  0.1339E+03  0.8492E+02  0.0000E+00  0.0000E+00  0.0000E+00  0.0000E+00  0.0000E+00  0.0000E+00  0.0000E+00  0.0000E+00  0.0000E+00  0.0000E+00  0.0000E+00  0.0000E+00  0.0000E+00  0.0000E+00  0.0000E+00  0.0000E+00  0.0000E+00  0.5414E+01  0.7026E+00  0.0000E+00  0.0000E+00
REACH    7        0     6  0.1150E+00  0.1003E-01  0.1003E-01  0.4554E-06  0.0000E+00  0.2617E+01  0.2617E+01  0.6467E+01  0.3018E+01  0.3018E+01  0.6558E+00  0.6557E+00  0.2257E+01  0.2257E+01  0.0000E+00  0.3760E-03  0.0000E+00  0.0000E+00  0.3518E-01  0.3525E-01  0.5487E-01  0.5469E-01  0.6672E+03  0.6668E+03  0.1277E+03  0.8057E+02  0.0000E+00  0.0000E+00  0.0000E+00  0.0000E+00  0.0000E+00  0.0000E+00  0.0000E+00  0.0000E+00  0.0000E+00  0.0000E+00  0.0000E+00  0.0000E+00  0.0000E+00  0.0000E+00  0.0000E+00  0.0000E+00  0.0000E+00  0.5275E+01  0.6910E+00  0.0000E+00  0.0000E+00
REACH    8        0     6  0.3248E+00  0.2806E-01  0.2806E-01  0.2174E-05  0.0000E+00  0.6152E+01  0.1813E+02  0.1202E+03  0.8918E+01  0.8917E+01  0.1986E+01  0.1985E+01  0.5459E+01  0.5458E+01  0.3021E-02  0.5183E-02  0.0000E+00  0.1496E-05  0.1437E+00  0.1442E+00  0.1650E+00  0.1642E+00  0.1573E+04  0.1571E+04  0.2309E+03  0.2239E+03  0.0000E+00  0.0000E+00  0.0000E+00  0.0000E+00  0.0000E+00  0.0000E+00  0.0000E+00  0.0000E+00  0.0000E+00  0.0000E+00  0.0000E+00  0.0000E+00  0.0000E+00  0.0000E+00  0.0000E+00  0.0000E+00  0.0000E+00  0.1438E+02  0.2129E+01  0.0000E+00  0.0000E+00
REACH    9        0     6  0.5735E+00  0.4946E-01  0.4946E-01  0.3834E-05  0.0000E+00  0.9688E+01  0.4475E+02  0.1478E+03  0.1508E+02  0.1508E+02  0.3272E+01  0.3271E+01  0.1080E+02  0.1080E+02  0.1213E-01  0.1560E-01  0.0000E+00  0.7187E-05  0.2197E+00  0.2204E+00  0.2862E+00  0.2850E+00  0.2530E+04  0.2528E+04  0.3992E+03  0.3860E+03  0.0000E+00  0.0000E+00  0.0000E+00  0.0000E+00  0.0000E+00  0.0000E+00  0.0000E+00  0.0000E+00  0.0000E+00  0.0000E+00  0.0000E+00  0.0000E+00  0.0000E+00  0.0000E+00  0.0000E+00  0.0000E+00  0.0000E+00  0.2589E+02  0.3491E+01  0.0000E+00  0.0000E+00
REACH   10        0     6  0.7677E+00  0.6632E-01  0.6631E-01  0.7423E-05  0.0000E+00  0.4783E+02  0.6449E+02  0.1561E+03  0.1993E+02  0.1993E+02  0.4324E+01  0.4323E+01  0.1457E+02  0.1457E+02  0.1579E-01  0.2261E-01  0.7187E-05  0.2173E-04  0.2931E+00  0.2945E+00  0.3752E+00  0.3731E+00  0.3320E+04  0.3315E+04  0.5580E+03  0.5218E+03  0.0000E+00  0.0000E+00  0.0000E+00  0.0000E+00  0.0000E+00  0.0000E+00  0.0000E+00  0.0000E+00  0.0000E+00  0.0000E+00  0.0000E+00  0.0000E+00  0.0000E+00  0.0000E+00  0.0000E+00  0.0000E+00  0.0000E+00  0.3452E+02  0.4617E+01  0.0000E+00  0.0000E+00
REACH   11        0     6  0.9102E+00  0.7874E-01  0.7874E-01  0.2440E-05  0.0000E+00  0.6709E+02  0.6706E+02  0.1438E+03  0.2354E+02  0.2354E+02  0.5108E+01  0.5107E+01  0.1737E+02  0.1737E+02  0.2458E-01  0.2704E-01  0.2173E-04  0.2671E-04  0.3432E+00  0.3438E+00  0.4380E+00  0.4373E+00  0.3976E+04  0.3974E+04  0.6318E+03  0.6226E+03  0.0000E+00  0.0000E+00  0.0000E+00  0.0000E+00  0.0000E+00  0.0000E+00  0.0000E+00  0.0000E+00  0.0000E+00  0.0000E+00  0.0000E+00  0.0000E+00  0.0000E+00  0.0000E+00  0.0000E+00  0.0000E+00  0.0000E+00  0.4094E+02  0.5451E+01  0.0000E+00  0.0000E+00
REACH   12        0     6  0.1305E+01  0.1129E+00  0.1129E+00  0.8460E-05  0.0000E+00  0.8646E+02  0.1060E+03  0.1619E+03  0.3423E+02  0.3422E+02  0.7476E+01  0.7474E+01  0.2420E+02  0.2420E+02  0.3223E-01  0.4106E-01  0.2821E-04  0.4760E-04  0.5116E+00  0.5136E+00  0.6336E+00  0.6312E+00  0.5871E+04  0.5863E+04  0.9242E+03  0.8956E+03  0.0000E+00  0.0000E+00  0.0000E+00  0.0000E+00  0.0000E+00  0.0000E+00  0.0000E+00  0.0000E+00  0.0000E+00  0.0000E+00  0.0000E+00  0.0000E+00  0.0000E+00  0.0000E+00  0.0000E+00  0.0000E+00  0.0000E+00  0.5846E+02  0.7988E+01  0.0000E+00  0.0000E+00
REACH   13        0     6  0.1675E+01  0.1448E+00  0.1448E+00  0.2371E-04  0.0000E+00  0.1158E+03  0.1108E+03  0.1367E+03  0.4432E+02  0.4430E+02  0.9669E+01  0.9662E+01  0.3145E+02  0.3144E+02  0.4144E-01  0.7062E-01  0.4760E-04  0.1268E-03  0.6499E+00  0.6571E+00  0.8269E+00  0.8190E+00  0.8358E+04  0.8327E+04  0.1266E+04  0.1127E+04  0.0000E+00  0.0000E+00  0.0000E+00  0.0000E+00  0.0000E+00  0.0000E+00  0.0000E+00  0.0000E+00  0.0000E+00  0.0000E+00  0.0000E+00  0.0000E+00  0.0000E+00  0.0000E+00  0.0000E+00  0.0000E+00  0.0000E+00  0.7582E+02  0.1032E+02  0.0000E+00  0.0000E+00
REACH    1        0     7  0.1667E+00  0.1014E-01  0.1014E-01  0.1503E-05  0.0000E+00  0.6401E+00  0.6401E+00  0.6776E+01  0.1215E+01  0.1215E+01  0.2643E+00  0.2642E+00  0.3251E+01  0.3251E+01  0.0000E+00  0.8737E-03  0.0000E+00  0.0000E+00  0.9622E-02  0.9701E-02  0.1866E-02  0.1839E-02  0.4859E+02  0.4852E+02  0.2139E+03  0.1747E+03  0.0000E+00  0.0000E+00  0.0000E+00  0.0000E+00  0.0000E+00  0.0000E+00  0.0000E+00  0.0000E+00  0.0000E+00  0.0000E+00  0.0000E+00  0.0000E+00  0.0000E+00  0.0000E+00  0.0000E+00  0.0000E+00  0.0000E+00  0.4467E+01  0.2739E+00  0.0000E+00  0.0000E+00
REACH    2        0     7  0.3738E+00  0.2270E-01  0.2269E-01  0.1051E-04  0.0000E+00  0.1593E+01  0.1593E+01  0.7543E+01  0.2828E+01  0.2826E+01  0.6155E+00  0.6147E+00  0.7248E+01  0.7246E+01  0.0000E+00  0.6697E-02  0.0000E+00  0.0000E+00  0.2121E-01  0.2197E-01  0.4469E-02  0.4272E-02  0.1224E+03  0.1217E+03  0.4775E+03  0.3836E+03  0.0000E+00  0.0000E+00  0.0000E+00  0.0000E+00  0.0000E+00  0.0000E+00  0.0000E+00  0.0000E+00  0.0000E+00  0.0000E+00  0.0000E+00  0.0000E+00  0.0000E+00  0.0000E+00  0.0000E+00  0.0000E+00  0.0000E+00  0.1008E+02  0.6367E+00  0.0000E+00  0.0000E+00
REACH    3        0     7  0.1521E+00  0.9454E-02  0.9451E-02  0.2668E-05  0.0000E+00  0.6221E+00  0.6221E+00  0.7005E+01  0.1044E+01  0.1043E+01  0.2342E+00  0.2341E+00  0.3102E+01  0.3102E+01  0.0000E+00  0.1495E-02  0.0000E+00  0.0000E+00  0.1077E-01  0.1094E-01  0.1517E-02  0.1477E-02  0.4058E+02  0.4047E+02  0.2014E+03  0.1663E+03  0.0000E+00  0.0000E+00  0.0000E+00  0.0000E+00  0.0000E+00  0.0000E+00  0.0000E+00  0.0000E+00  0.0000E+00  0.0000E+00  0.0000E+00  0.0000E+00  0.0000E+00  0.0000E+00  0.0000E+00  0.0000E+00  0.0000E+00  0.4147E+01  0.2450E+00  0.0000E+00  0.0000E+00
REACH    4        0     7  0.1036E+00  0.6421E-02  0.6421E-02  0.2976E-06  0.0000E+00  0.3264E+00  0.3264E+00  0.5405E+01  0.5759E+00  0.5758E+00  0.1253E+00  0.1253E+00  0.2110E+01  0.2110E+01  0.0000E+00  0.1230E-03  0.0000E+00  0.0000E+00  0.4601E-02  0.4612E-02  0.5795E-03  0.5770E-03  0.2010E+02  0.2009E+02  0.1380E+03  0.1183E+03  0.0000E+00  0.0000E+00  0.0000E+00  0.0000E+00  0.0000E+00  0.0000E+00  0.0000E+00  0.0000E+00  0.0000E+00  0.0000E+00  0.0000E+00  0.0000E+00  0.0000E+00  0.0000E+00  0.0000E+00  0.0000E+00  0.0000E+00  0.2686E+01  0.1299E+00  0.0000E+00  0.0000E+00
REACH    5        0     7  0.1560E+00  0.9708E-02  0.9708E-02  0.6322E-06  0.0000E+00  0.5672E+00  0.5672E+00  0.6237E+01  0.1157E+01  0.1157E+01  0.2625E+00  0.2625E+00  0.3190E+01  0.3189E+01  0.0000E+00  0.3651E-03  0.0000E+00  0.0000E+00  0.1359E-01  0.1364E-01  0.1897E-02  0.1885E-02  0.3868E+02  0.3866E+02  0.2065E+03  0.1725E+03  0.0000E+00  0.0000E+00  0.0000E+00  0.0000E+00  0.0000E+00  0.0000E+00  0.0000E+00  0.0000E+00  0.0000E+00  0.0000E+00  0.0000E+00  0.0000E+00  0.0000E+00  0.0000E+00  0.0000E+00  0.0000E+00  0.0000E+00  0.4346E+01  0.2761E+00  0.0000E+00  0.0000E+00
REACH    6        0     7  0.1200E+00  0.7446E-02  0.7444E-02  0.2273E-05  0.0000E+00  0.4163E+00  0.4163E+00  0.5943E+01  0.6756E+00  0.6753E+00  0.1471E+00  0.1470E+00  0.2455E+01  0.2454E+01  0.0000E+00  0.1203E-02  0.0000E+00  0.0000E+00  0.4966E-02  0.5050E-02  0.6691E-03  0.6498E-03  0.2545E+02  0.2538E+02  0.1598E+03  0.1355E+03  0.0000E+00  0.0000E+00  0.0000E+00  0.0000E+00  0.0000E+00  0.0000E+00  0.0000E+00  0.0000E+00  0.0000E+00  0.0000E+00  0.0000E+00  0.0000E+00  0.0000E+00  0.0000E+00  0.0000E+00  0.0000E+00  0.0000E+00  0.3131E+01  0.1520E+00  0.0000E+00  0.0000E+00
REACH    7        0     7  0.1150E+00  0.7133E-02  0.7132E-02  0.4281E-06  0.0000E+00  0.4958E+00  0.4958E+00  0.7387E+01  0.6669E+00  0.6668E+00  0.1454E+00  0.1454E+00  0.2343E+01  0.2343E+01  0.0000E+00  0.2262E-03  0.0000E+00  0.0000E+00  0.4278E-02  0.4294E-02  0.6596E-03  0.6559E-03  0.3030E+02  0.3028E+02  0.1527E+03  0.1260E+03  0.0000E+00  0.0000E+00  0.0000E+00  0.0000E+00  0.0000E+00  0.0000E+00  0.0000E+00  0.0000E+00  0.0000E+00  0.0000E+00  0.0000E+00  0.0000E+00  0.0000E+00  0.0000E+00  0.0000E+00  0.0000E+00  0.0000E+00  0.3010E+01  0.1497E+00  0.0000E+00  0.0000E+00
REACH    8        0     7  0.3248E+00  0.2020E-01  0.2020E-01  0.2090E-05  0.0000E+00  0.1238E+01  0.1269E+02  0.1497E+03  0.2291E+01  0.2290E+01  0.5164E+00  0.5162E+00  0.6636E+01  0.6636E+01  0.1861E-02  0.3149E-02  0.0000E+00  0.4399E-06  0.2534E-01  0.2551E-01  0.3452E-02  0.3417E-02  0.8212E+02  0.8201E+02  0.3612E+03  0.3581E+03  0.0000E+00  0.0000E+00  0.0000E+00  0.0000E+00  0.0000E+00  0.0000E+00  0.0000E+00  0.0000E+00  0.0000E+00  0.0000E+00  0.0000E+00  0.0000E+00  0.0000E+00  0.0000E+00  0.0000E+00  0.0000E+00  0.0000E+00  0.8929E+01  0.5417E+00  0.0000E+00  0.0000E+00
REACH    9        0     7  0.5735E+00  0.3483E-01  0.3482E-01  0.3664E-05  0.0000E+00  0.2339E+01  0.2749E+02  0.1799E+03  0.4278E+01  0.4277E+01  0.9303E+00  0.9301E+00  0.1113E+02  0.1113E+02  0.7571E-02  0.9901E-02  0.0000E+00  0.2309E-05  0.3400E-01  0.3429E-01  0.6498E-02  0.6434E-02  0.1785E+03  0.1783E+03  0.6004E+03  0.5935E+03  0.0000E+00  0.0000E+00  0.0000E+00  0.0000E+00  0.0000E+00  0.0000E+00  0.0000E+00  0.0000E+00  0.0000E+00  0.0000E+00  0.0000E+00  0.0000E+00  0.0000E+00  0.0000E+00  0.0000E+00  0.0000E+00  0.0000E+00  0.1542E+02  0.9644E+00  0.0000E+00  0.0000E+00
REACH   10        0     7  0.7677E+00  0.4677E-01  0.4676E-01  0.7092E-05  0.0000E+00  0.2812E+02  0.3936E+02  0.1927E+03  0.5458E+01  0.5456E+01  0.1187E+01  0.1186E+01  0.1503E+02  0.1503E+02  0.1002E-01  0.1460E-01  0.2309E-05  0.7675E-05  0.4401E-01  0.4458E-01  0.7849E-02  0.7737E-02  0.2207E+03  0.2203E+03  0.8291E+03  0.8082E+03  0.0000E+00  0.0000E+00  0.0000E+00  0.0000E+00  0.0000E+00  0.0000E+00  0.0000E+00  0.0000E+00  0.0000E+00  0.0000E+00  0.0000E+00  0.0000E+00  0.0000E+00  0.0000E+00  0.0000E+00  0.0000E+00  0.0000E+00  0.2050E+02  0.1231E+01  0.0000E+00  0.0000E+00
REACH   11        0     7  0.9102E+00  0.5560E-01  0.5560E-01  0.2335E-05  0.0000E+00  0.3985E+02  0.4375E+02  0.1844E+03  0.6258E+01  0.6257E+01  0.1361E+01  0.1361E+01  0.1794E+02  0.1794E+02  0.1581E-01  0.1734E-01  0.7675E-05  0.1021E-04  0.5056E-01  0.5076E-01  0.8511E-02  0.8477E-02  0.2504E+03  0.2503E+03  0.9736E+03  0.9686E+03  0.0000E+00  0.0000E+00  0.0000E+00  0.0000E+00  0.0000E+00  0.0000E+00  0.0000E+00  0.0000E+00  0.0000E+00  0.0000E+00  0.0000E+00  0.0000E+00  0.0000E+00  0.0000E+00  0.0000E+00  0.0000E+00  0.0000E+00  0.2421E+02  0.1411E+01  0.0000E+00  0.0000E+00
REACH   12        0     7  0.1305E+01  0.8012E-01  0.8011E-01  0.8085E-05  0.0000E+00  0.5667E+02  0.7205E+02  0.2095E+03  0.8939E+01  0.8937E+01  0.1962E+01  0.1962E+01  0.2600E+02  0.2600E+02  0.2049E-01  0.2583E-01  0.1065E-04  0.1869E-04  0.7915E-01  0.7987E-01  0.1228E-01  0.1216E-01  0.3470E+03  0.3466E+03  0.1419E+04  0.1405E+04  0.0000E+00  0.0000E+00  0.0000E+00  0.0000E+00  0.0000E+00  0.0000E+00  0.0000E+00  0.0000E+00  0.0000E+00  0.0000E+00  0.0000E+00  0.0000E+00  0.0000E+00  0.0000E+00  0.0000E+00  0.0000E+00  0.0000E+00  0.3496E+02  0.2041E+01  0.0000E+00  0.0000E+00
REACH   13        0     7  0.1675E+01  0.1027E+00  0.1027E+00  0.2290E-04  0.0000E+00  0.7392E+02  0.7633E+02  0.1710E+03  0.1116E+02  0.1115E+02  0.2446E+01  0.2444E+01  0.3344E+02  0.3344E+02  0.2606E-01  0.4196E-01  0.1869E-04  0.6077E-04  0.9668E-01  0.9905E-01  0.2194E-01  0.2141E-01  0.4878E+03  0.4860E+03  0.1862E+04  0.1768E+04  0.0000E+00  0.0000E+00  0.0000E+00  0.0000E+00  0.0000E+00  0.0000E+00  0.0000E+00  0.0000E+00  0.0000E+00  0.0000E+00  0.0000E+00  0.0000E+00  0.0000E+00  0.0000E+00  0.0000E+00  0.0000E+00  0.0000E+00  0.4463E+02  0.2543E+01  0.0000E+00  0.0000E+00
REACH    1        0     8  0.1667E+00  0.2360E-01  0.2359E-01  0.2501E-05  0.0000E+00  0.1817E+02  0.1817E+02  0.6129E+02  0.3414E+02  0.3414E+02  0.7434E+01  0.7431E+01  0.3573E+01  0.3573E+01  0.0000E+00  0.6234E-02  0.0000E+00  0.0000E+00  0.9520E-01  0.9719E-01  0.5704E+00  0.5649E+00  0.4450E+04  0.4442E+04  0.3723E+03  0.2436E+03  0.0000E+00  0.0000E+00  0.0000E+00  0.0000E+00  0.0000E+00  0.0000E+00  0.0000E+00  0.0000E+00  0.0000E+00  0.0000E+00  0.0000E+00  0.0000E+00  0.0000E+00  0.0000E+00  0.0000E+00  0.0000E+00  0.0000E+00  0.3771E+02  0.7528E+01  0.0000E+00  0.0000E+00
REACH    2        0     8  0.3738E+00  0.5291E-01  0.5289E-01  0.1711E-04  0.0000E+00  0.4473E+02  0.4473E+02  0.6737E+02  0.7847E+02  0.7839E+02  0.1710E+02  0.1707E+02  0.8031E+01  0.8028E+01  0.0000E+00  0.6051E-01  0.0000E+00  0.0000E+00  0.2062E+00  0.2263E+00  0.1320E+01  0.1278E+01  0.1099E+05  0.1091E+05  0.8328E+03  0.5421E+03  0.0000E+00  0.0000E+00  0.0000E+00  0.0000E+00  0.0000E+00  0.0000E+00  0.0000E+00  0.0000E+00  0.0000E+00  0.0000E+00  0.0000E+00  0.0000E+00  0.0000E+00  0.0000E+00  0.0000E+00  0.0000E+00  0.0000E+00  0.8648E+02  0.1730E+02  0.0000E+00  0.0000E+00
REACH    3        0     8  0.1521E+00  0.2153E-01  0.2152E-01  0.4545E-05  0.0000E+00  0.2007E+02  0.2007E+02  0.7303E+02  0.3051E+02  0.3049E+02  0.6794E+01  0.6789E+01  0.3201E+01  0.3200E+01  0.0000E+00  0.1107E-01  0.0000E+00  0.0000E+00  0.1027E+00  0.1063E+00  0.4725E+00  0.4631E+00  0.4665E+04  0.4650E+04  0.3483E+03  0.2275E+03  0.0000E+00  0.0000E+00  0.0000E+00  0.0000E+00  0.0000E+00  0.0000E+00  0.0000E+00  0.0000E+00  0.0000E+00  0.0000E+00  0.0000E+00  0.0000E+00  0.0000E+00  0.0000E+00  0.0000E+00  0.0000E+00  0.0000E+00  0.3370E+02  0.6895E+01  0.0000E+00  0.0000E+00
REACH    4        0     8  0.1036E+00  0.1463E-01  0.1463E-01  0.3754E-06  0.0000E+00  0.1103E+02  0.1103E+02  0.5906E+02  0.1937E+02  0.1936E+02  0.4218E+01  0.4218E+01  0.2146E+01  0.2146E+01  0.0000E+00  0.1028E-02  0.0000E+00  0.0000E+00  0.5293E-01  0.5326E-01  0.2878E+00  0.2870E+00  0.2551E+04  0.2550E+04  0.2398E+03  0.1581E+03  0.0000E+00  0.0000E+00  0.0000E+00  0.0000E+00  0.0000E+00  0.0000E+00  0.0000E+00  0.0000E+00  0.0000E+00  0.0000E+00  0.0000E+00  0.0000E+00  0.0000E+00  0.0000E+00  0.0000E+00  0.0000E+00  0.0000E+00  0.2151E+02  0.4271E+01  0.0000E+00  0.0000E+00
REACH    5        0     8  0.1560E+00  0.2210E-01  0.2210E-01  0.1054E-05  0.0000E+00  0.1760E+02  0.1760E+02  0.6252E+02  0.3180E+02  0.3180E+02  0.7144E+01  0.7143E+01  0.3310E+01  0.3310E+01  0.0000E+00  0.2613E-02  0.0000E+00  0.0000E+00  0.1253E+00  0.1261E+00  0.5032E+00  0.5010E+00  0.4115E+04  0.4112E+04  0.3554E+03  0.2338E+03  0.0000E+00  0.0000E+00  0.0000E+00  0.0000E+00  0.0000E+00  0.0000E+00  0.0000E+00  0.0000E+00  0.0000E+00  0.0000E+00  0.0000E+00  0.0000E+00  0.0000E+00  0.0000E+00  0.0000E+00  0.0000E+00  0.0000E+00  0.3511E+02  0.7269E+01  0.0000E+00  0.0000E+00
REACH    6        0     8  0.1200E+00  0.1696E-01  0.1695E-01  0.3896E-05  0.0000E+00  0.1414E+02  0.1414E+02  0.6523E+02  0.2278E+02  0.2277E+02  0.4968E+01  0.4964E+01  0.2500E+01  0.2499E+01  0.0000E+00  0.8860E-02  0.0000E+00  0.0000E+00  0.5764E-01  0.6044E-01  0.3365E+00  0.3290E+00  0.3261E+04  0.3250E+04  0.2783E+03  0.1826E+03  0.0000E+00  0.0000E+00  0.0000E+00  0.0000E+00  0.0000E+00  0.0000E+00  0.0000E+00  0.0000E+00  0.0000E+00  0.0000E+00  0.0000E+00  0.0000E+00  0.0000E+00  0.0000E+00  0.0000E+00  0.0000E+00  0.0000E+00  0.2528E+02  0.5024E+01  0.0000E+00  0.0000E+00
REACH    7        0     8  0.1150E+00  0.1625E-01  0.1625E-01  0.7339E-06  0.0000E+00  0.1684E+02  0.1684E+02  0.8109E+02  0.2240E+02  0.2240E+02  0.4895E+01  0.4894E+01  0.2387E+01  0.2387E+01  0.0000E+00  0.1696E-02  0.0000E+00  0.0000E+00  0.4935E-01  0.4989E-01  0.3309E+00  0.3295E+00  0.3885E+04  0.3882E+04  0.2664E+03  0.1731E+03  0.0000E+00  0.0000E+00  0.0000E+00  0.0000E+00  0.0000E+00  0.0000E+00  0.0000E+00  0.0000E+00  0.0000E+00  0.0000E+00  0.0000E+00  0.0000E+00  0.0000E+00  0.0000E+00  0.0000E+00  0.0000E+00  0.0000E+00  0.2479E+02  0.4944E+01  0.0000E+00  0.0000E+00
REACH    8        0     8  0.3248E+00  0.4600E-01  0.4599E-01  0.3406E-05  0.0000E+00  0.3933E+02  0.2952E+02  0.1596E+03  0.6538E+02  0.6536E+02  0.1460E+02  0.1460E+02  0.6861E+01  0.6860E+01  0.1368E-01  0.2507E-01  0.0000E+00  0.1059E-05  0.2413E+00  0.2452E+00  0.1010E+01  0.1002E+01  0.9145E+04  0.9130E+04  0.5003E+03  0.4870E+03  0.0000E+00  0.0000E+00  0.0000E+00  0.0000E+00  0.0000E+00  0.0000E+00  0.0000E+00  0.0000E+00  0.0000E+00  0.0000E+00  0.0000E+00  0.0000E+00  0.0000E+00  0.0000E+00  0.0000E+00  0.0000E+00  0.0000E+00  0.7225E+02  0.1484E+02  0.0000E+00  0.0000E+00
REACH    9        0     8  0.5735E+00  0.8116E-01  0.8115E-01  0.5284E-05  0.0000E+00  0.6582E+02  0.7482E+02  0.2055E+03  0.1190E+03  0.1190E+03  0.2591E+02  0.2590E+02  0.1232E+02  0.1232E+02  0.6674E-01  0.8290E-01  0.0000E+00  0.4923E-05  0.3455E+00  0.3508E+00  0.1953E+01  0.1943E+01  0.1607E+05  0.1605E+05  0.8593E+03  0.8344E+03  0.0000E+00  0.0000E+00  0.0000E+00  0.0000E+00  0.0000E+00  0.0000E+00  0.0000E+00  0.0000E+00  0.0000E+00  0.0000E+00  0.0000E+00  0.0000E+00  0.0000E+00  0.0000E+00  0.0000E+00  0.0000E+00  0.0000E+00  0.1314E+03  0.2625E+02  0.0000E+00  0.0000E+00
REACH   10        0     8  0.7677E+00  0.1086E+00  0.1086E+00  0.1014E-04  0.0000E+00  0.9504E+02  0.1164E+03  0.2262E+03  0.1562E+03  0.1561E+03  0.3400E+02  0.3399E+02  0.1636E+02  0.1636E+02  0.8392E-01  0.1135E+00  0.4923E-05  0.1508E-04  0.4563E+00  0.4659E+00  0.2519E+01  0.2502E+01  0.2082E+05  0.2079E+05  0.1196E+04  0.1125E+04  0.0000E+00  0.0000E+00  0.0000E+00  0.0000E+00  0.0000E+00  0.0000E+00  0.0000E+00  0.0000E+00  0.0000E+00  0.0000E+00  0.0000E+00  0.0000E+00  0.0000E+00  0.0000E+00  0.0000E+00  0.0000E+00  0.0000E+00  0.1726E+03  0.3445E+02  0.0000E+00  0.0000E+00
REACH   11        0     8  0.9102E+00  0.1287E+00  0.1287E+00  0.3358E-05  0.0000E+00  0.1332E+03  0.1105E+03  0.1923E+03  0.1831E+03  0.1831E+03  0.3988E+02  0.3987E+02  0.1933E+02  0.1933E+02  0.1223E+00  0.1351E+00  0.1508E-04  0.1959E-04  0.5372E+00  0.5415E+00  0.2894E+01  0.2887E+01  0.2464E+05  0.2463E+05  0.1360E+04  0.1341E+04  0.0000E+00  0.0000E+00  0.0000E+00  0.0000E+00  0.0000E+00  0.0000E+00  0.0000E+00  0.0000E+00  0.0000E+00  0.0000E+00  0.0000E+00  0.0000E+00  0.0000E+00  0.0000E+00  0.0000E+00  0.0000E+00  0.0000E+00  0.2026E+03  0.4041E+02  0.0000E+00  0.0000E+00
REACH   12        0     8  0.1305E+01  0.1845E+00  0.1845E+00  0.1071E-04  0.0000E+00  0.1483E+03  0.2126E+03  0.2265E+03  0.2617E+03  0.2617E+03  0.5735E+02  0.5734E+02  0.2764E+02  0.2763E+02  0.1601E+00  0.1870E+00  0.2065E-04  0.3509E-04  0.8201E+00  0.8287E+00  0.4085E+01  0.4072E+01  0.3565E+05  0.3562E+05  0.1990E+04  0.1934E+04  0.0000E+00  0.0000E+00  0.0000E+00  0.0000E+00  0.0000E+00  0.0000E+00  0.0000E+00  0.0000E+00  0.0000E+00  0.0000E+00  0.0000E+00  0.0000E+00  0.0000E+00  0.0000E+00  0.0000E+00  0.0000E+00  0.0000E+00  0.2895E+03  0.5817E+02  0.0000E+00  0.0000E+00
REACH   13        0     8  0.1675E+01  0.2365E+00  0.2364E+00  0.3225E-04  0.0000E+00  0.2733E+03  0.2007E+03  0.1894E+03  0.3305E+03  0.3303E+03  0.7238E+02  0.7232E+02  0.3564E+02  0.3563E+02  0.1887E+00  0.3383E+00  0.3509E-04  0.8646E-04  0.1012E+01  0.1063E+01  0.5087E+01  0.5026E+01  0.4944E+05  0.4924E+05  0.2703E+04  0.2473E+04  0.0000E+00  0.0000E+00  0.0000E+00  0.0000E+00  0.0000E+00  0.0000E+00  0.0000E+00  0.0000E+00  0.0000E+00  0.0000E+00  0.0000E+00  0.0000E+00  0.0000E+00  0.0000E+00  0.0000E+00  0.0000E+00  0.0000E+00  0.3663E+03  0.7339E+02  0.0000E+00  0.0000E+00
REACH    1        0     9  0.1667E+00  0.6133E-02  0.6131E-02  0.2090E-05  0.0000E+00  0.5337E+01  0.5337E+01  0.5271E+02  0.8188E+01  0.8186E+01  0.1784E+01  0.1783E+01  0.8601E+00  0.8598E+00  0.0000E+00  0.1880E-02  0.0000E+00  0.0000E+00  0.1042E-01  0.1087E-01  0.7282E-01  0.7198E-01  0.9402E+03  0.9388E+03  0.1060E+03  0.6512E+02  0.0000E+00  0.0000E+00  0.0000E+00  0.0000E+00  0.0000E+00  0.0000E+00  0.0000E+00  0.0000E+00  0.0000E+00  0.0000E+00  0.0000E+00  0.0000E+00  0.0000E+00  0.0000E+00  0.0000E+00  0.0000E+00  0.0000E+00  0.9048E+01  0.1794E+01  0.0000E+00  0.0000E+00
REACH    2        0     9  0.3738E+00  0.1375E-01  0.1373E-01  0.1470E-04  0.0000E+00  0.1307E+02  0.1307E+02  0.5766E+02  0.1866E+02  0.1864E+02  0.4067E+01  0.4062E+01  0.1932E+01  0.1930E+01  0.0000E+00  0.1432E-01  0.0000E+00  0.0000E+00  0.2239E-01  0.2597E-01  0.1661E+00  0.1603E+00  0.2304E+04  0.2292E+04  0.2375E+03  0.1447E+03  0.0000E+00  0.0000E+00  0.0000E+00  0.0000E+00  0.0000E+00  0.0000E+00  0.0000E+00  0.0000E+00  0.0000E+00  0.0000E+00  0.0000E+00  0.0000E+00  0.0000E+00  0.0000E+00  0.0000E+00  0.0000E+00  0.0000E+00  0.2059E+02  0.4088E+01  0.0000E+00  0.0000E+00
REACH    3        0     9  0.1521E+00  0.5688E-02  0.5684E-02  0.3726E-05  0.0000E+00  0.6041E+01  0.6041E+01  0.6430E+02  0.7499E+01  0.7496E+01  0.1677E+01  0.1676E+01  0.7443E+00  0.7438E+00  0.0000E+00  0.2914E-02  0.0000E+00  0.0000E+00  0.1223E-01  0.1294E-01  0.6635E-01  0.6492E-01  0.1009E+04  0.1006E+04  0.9900E+02  0.6083E+02  0.0000E+00  0.0000E+00  0.0000E+00  0.0000E+00  0.0000E+00  0.0000E+00  0.0000E+00  0.0000E+00  0.0000E+00  0.0000E+00  0.0000E+00  0.0000E+00  0.0000E+00  0.0000E+00  0.0000E+00  0.0000E+00  0.0000E+00  0.8243E+01  0.1689E+01  0.0000E+00  0.0000E+00
REACH    4        0     9  0.1036E+00  0.3864E-02  0.3864E-02  0.3163E-06  0.0000E+00  0.3297E+01  0.3297E+01  0.5154E+02  0.4717E+01  0.4716E+01  0.1028E+01  0.1028E+01  0.4904E+00  0.4904E+00  0.0000E+00  0.3514E-03  0.0000E+00  0.0000E+00  0.5864E-02  0.5962E-02  0.3872E-01  0.3854E-01  0.5569E+03  0.5565E+03  0.6817E+02  0.4319E+02  0.0000E+00  0.0000E+00  0.0000E+00  0.0000E+00  0.0000E+00  0.0000E+00  0.0000E+00  0.0000E+00  0.0000E+00  0.0000E+00  0.0000E+00  0.0000E+00  0.0000E+00  0.0000E+00  0.0000E+00  0.0000E+00  0.0000E+00  0.5207E+01  0.1034E+01  0.0000E+00  0.0000E+00
REACH    5        0     9  0.1560E+00  0.5841E-02  0.5840E-02  0.8707E-06  0.0000E+00  0.5346E+01  0.5346E+01  0.5567E+02  0.8135E+01  0.8134E+01  0.1835E+01  0.1835E+01  0.7791E+00  0.7790E+00  0.0000E+00  0.7362E-03  0.0000E+00  0.0000E+00  0.1524E-01  0.1543E-01  0.7470E-01  0.7433E-01  0.9219E+03  0.9215E+03  0.1010E+03  0.6215E+02  0.0000E+00  0.0000E+00  0.0000E+00  0.0000E+00  0.0000E+00  0.0000E+00  0.0000E+00  0.0000E+00  0.0000E+00  0.0000E+00  0.0000E+00  0.0000E+00  0.0000E+00  0.0000E+00  0.0000E+00  0.0000E+00  0.0000E+00  0.8914E+01  0.1851E+01  0.0000E+00  0.0000E+00
REACH    6        0     9  0.1200E+00  0.4473E-02  0.4470E-02  0.3131E-05  0.0000E+00  0.4204E+01  0.4204E+01  0.5666E+02  0.5503E+01  0.5501E+01  0.1201E+01  0.1200E+01  0.5683E+00  0.5680E+00  0.0000E+00  0.2338E-02  0.0000E+00  0.0000E+00  0.6328E-02  0.6849E-02  0.4472E-01  0.4367E-01  0.7068E+03  0.7051E+03  0.7904E+02  0.4973E+02  0.0000E+00  0.0000E+00  0.0000E+00  0.0000E+00  0.0000E+00  0.0000E+00  0.0000E+00  0.0000E+00  0.0000E+00  0.0000E+00  0.0000E+00  0.0000E+00  0.0000E+00  0.0000E+00  0.0000E+00  0.0000E+00  0.0000E+00  0.6071E+01  0.1207E+01  0.0000E+00  0.0000E+00
REACH    7        0     9  0.1150E+00  0.4285E-02  0.4285E-02  0.5878E-06  0.0000E+00  0.5010E+01  0.5010E+01  0.7044E+02  0.5286E+01  0.5285E+01  0.1156E+01  0.1156E+01  0.5406E+00  0.5405E+00  0.0000E+00  0.4422E-03  0.0000E+00  0.0000E+00  0.5357E-02  0.5455E-02  0.4282E-01  0.4262E-01  0.8279E+03  0.8275E+03  0.7571E+02  0.4690E+02  0.0000E+00  0.0000E+00  0.0000E+00  0.0000E+00  0.0000E+00  0.0000E+00  0.0000E+00  0.0000E+00  0.0000E+00  0.0000E+00  0.0000E+00  0.0000E+00  0.0000E+00  0.0000E+00  0.0000E+00  0.0000E+00  0.0000E+00  0.5826E+01  0.1161E+01  0.0000E+00  0.0000E+00
REACH    8        0     9  0.3248E+00  0.1215E-01  0.1215E-01  0.2898E-05  0.0000E+00  0.1188E+02  0.7044E+01  0.1104E+03  0.1638E+02  0.1638E+02  0.3675E+01  0.3674E+01  0.1603E+01  0.1603E+01  0.3650E-02  0.6500E-02  0.0000E+00  0.6242E-05  0.2935E-01  0.3013E-01  0.1453E+00  0.1442E+00  0.2011E+04  0.2009E+04  0.1341E+03  0.1300E+03  0.0000E+00  0.0000E+00  0.0000E+00  0.0000E+00  0.0000E+00  0.0000E+00  0.0000E+00  0.0000E+00  0.0000E+00  0.0000E+00  0.0000E+00  0.0000E+00  0.0000E+00  0.0000E+00  0.0000E+00  0.0000E+00  0.0000E+00  0.1799E+02  0.3704E+01  0.0000E+00  0.0000E+00
REACH    9        0     9  0.5735E+00  0.2108E-01  0.2108E-01  0.5237E-05  0.0000E+00  0.1926E+02  0.1534E+02  0.1307E+03  0.2837E+02  0.2837E+02  0.6182E+01  0.6180E+01  0.2963E+01  0.2962E+01  0.1620E-01  0.2117E-01  0.0000E+00  0.2568E-04  0.3925E-01  0.4051E-01  0.2460E+00  0.2441E+00  0.3381E+04  0.3377E+04  0.2309E+03  0.2230E+03  0.0000E+00  0.0000E+00  0.0000E+00  0.0000E+00  0.0000E+00  0.0000E+00  0.0000E+00  0.0000E+00  0.0000E+00  0.0000E+00  0.0000E+00  0.0000E+00  0.0000E+00  0.0000E+00  0.0000E+00  0.0000E+00  0.0000E+00  0.3135E+02  0.6220E+01  0.0000E+00  0.0000E+00
REACH   10        0     9  0.7677E+00  0.2829E-01  0.2827E-01  0.1020E-04  0.0000E+00  0.2139E+02  0.2221E+02  0.1405E+03  0.3745E+02  0.3744E+02  0.8159E+01  0.8156E+01  0.3909E+01  0.3908E+01  0.2153E-01  0.3107E-01  0.2568E-04  0.6932E-04  0.5232E-01  0.5474E-01  0.3214E+00  0.3178E+00  0.4419E+04  0.4412E+04  0.3241E+03  0.3017E+03  0.0000E+00  0.0000E+00  0.0000E+00  0.0000E+00  0.0000E+00  0.0000E+00  0.0000E+00  0.0000E+00  0.0000E+00  0.0000E+00  0.0000E+00  0.0000E+00  0.0000E+00  0.0000E+00  0.0000E+00  0.0000E+00  0.0000E+00  0.4138E+02  0.8211E+01  0.0000E+00  0.0000E+00
REACH   11        0     9  0.9102E+00  0.3358E-01  0.3358E-01  0.3361E-05  0.0000E+00  0.2719E+02  0.2432E+02  0.1354E+03  0.4397E+02  0.4397E+02  0.9580E+01  0.9579E+01  0.4582E+01  0.4581E+01  0.3341E-01  0.3688E-01  0.6932E-04  0.8708E-04  0.6278E-01  0.6371E-01  0.3698E+00  0.3686E+00  0.5247E+04  0.5245E+04  0.3662E+03  0.3606E+03  0.0000E+00  0.0000E+00  0.0000E+00  0.0000E+00  0.0000E+00  0.0000E+00  0.0000E+00  0.0000E+00  0.0000E+00  0.0000E+00  0.0000E+00  0.0000E+00  0.0000E+00  0.0000E+00  0.0000E+00  0.0000E+00  0.0000E+00  0.4859E+02  0.9643E+01  0.0000E+00  0.0000E+00
REACH   12        0     9  0.1305E+01  0.4832E-01  0.4831E-01  0.1175E-04  0.0000E+00  0.3380E+02  0.3991E+02  0.1531E+03  0.6354E+02  0.6352E+02  0.1395E+02  0.1395E+02  0.6514E+01  0.6512E+01  0.4338E-01  0.5549E-01  0.9332E-04  0.1515E-03  0.9751E-01  0.1008E+00  0.5387E+00  0.5346E+00  0.7663E+04  0.7654E+04  0.5365E+03  0.5192E+03  0.0000E+00  0.0000E+00  0.0000E+00  0.0000E+00  0.0000E+00  0.0000E+00  0.0000E+00  0.0000E+00  0.0000E+00  0.0000E+00  0.0000E+00  0.0000E+00  0.0000E+00  0.0000E+00  0.0000E+00  0.0000E+00  0.0000E+00  0.7009E+02  0.1405E+02  0.0000E+00  0.0000E+00
REACH   13        0     9  0.1675E+01  0.6228E-01  0.6225E-01  0.3320E-04  0.0000E+00  0.5779E+02  0.4300E+02  0.1225E+03  0.7843E+02  0.7839E+02  0.1721E+02  0.1720E+02  0.8317E+01  0.8313E+01  0.5593E-01  0.9480E-01  0.1515E-03  0.2632E-03  0.1192E+00  0.1303E+00  0.6570E+00  0.6457E+00  0.1045E+05  0.1042E+05  0.7417E+03  0.6704E+03  0.0000E+00  0.0000E+00  0.0000E+00  0.0000E+00  0.0000E+00  0.0000E+00  0.0000E+00  0.0000E+00  0.0000E+00  0.0000E+00  0.0000E+00  0.0000E+00  0.0000E+00  0.0000E+00  0.0000E+00  0.0000E+00  0.0000E+00  0.8680E+02  0.1733E+02  0.0000E+00  0.0000E+00
REACH    1        0    10  0.1667E+00  0.9163E-02  0.9160E-02  0.2681E-05  0.0000E+00  0.2558E+02  0.2558E+02  0.1742E+03  0.3519E+02  0.3518E+02  0.7674E+01  0.7671E+01  0.1803E+01  0.1802E+01  0.0000E+00  0.6427E-02  0.0000E+00  0.0000E+00  0.2791E-01  0.3000E-01  0.4060E+00  0.4009E+00  0.4746E+04  0.4738E+04  0.1280E+03  0.5458E+02  0.0000E+00  0.0000E+00  0.0000E+00  0.0000E+00  0.0000E+00  0.0000E+00  0.0000E+00  0.0000E+00  0.0000E+00  0.0000E+00  0.0000E+00  0.0000E+00  0.0000E+00  0.0000E+00  0.0000E+00  0.0000E+00  0.0000E+00  0.3699E+02  0.7701E+01  0.0000E+00  0.0000E+00
REACH    2        0    10  0.3738E+00  0.2053E-01  0.2052E-01  0.1596E-04  0.0000E+00  0.6271E+02  0.6271E+02  0.1906E+03  0.7917E+02  0.7911E+02  0.1728E+02  0.1726E+02  0.4038E+01  0.4035E+01  0.0000E+00  0.4426E-01  0.0000E+00  0.0000E+00  0.5972E-01  0.7425E-01  0.9188E+00  0.8927E+00  0.1153E+05  0.1148E+05  0.2867E+03  0.1222E+03  0.0000E+00  0.0000E+00  0.0000E+00  0.0000E+00  0.0000E+00  0.0000E+00  0.0000E+00  0.0000E+00  0.0000E+00  0.0000E+00  0.0000E+00  0.0000E+00  0.0000E+00  0.0000E+00  0.0000E+00  0.0000E+00  0.0000E+00  0.8319E+02  0.1734E+02  0.0000E+00  0.0000E+00
REACH    3        0    10  0.1521E+00  0.8472E-02  0.8468E-02  0.4064E-05  0.0000E+00  0.3004E+02  0.3004E+02  0.2215E+03  0.3331E+02  0.3330E+02  0.7500E+01  0.7497E+01  0.1603E+01  0.1602E+01  0.0000E+00  0.8306E-02  0.0000E+00  0.0000E+00  0.3226E-01  0.3498E-01  0.3897E+00  0.3829E+00  0.5050E+04  0.5040E+04  0.1196E+03  0.5080E+02  0.0000E+00  0.0000E+00  0.0000E+00  0.0000E+00  0.0000E+00  0.0000E+00  0.0000E+00  0.0000E+00  0.0000E+00  0.0000E+00  0.0000E+00  0.0000E+00  0.0000E+00  0.0000E+00  0.0000E+00  0.0000E+00  0.0000E+00  0.3491E+02  0.7532E+01  0.0000E+00  0.0000E+00
REACH    4        0    10  0.1036E+00  0.5748E-02  0.5747E-02  0.4273E-06  0.0000E+00  0.1615E+02  0.1615E+02  0.1757E+03  0.2056E+02  0.2056E+02  0.4488E+01  0.4487E+01  0.1091E+01  0.1091E+01  0.0000E+00  0.1268E-02  0.0000E+00  0.0000E+00  0.1593E-01  0.1635E-01  0.2186E+00  0.2176E+00  0.2840E+04  0.2838E+04  0.8325E+02  0.3520E+02  0.0000E+00  0.0000E+00  0.0000E+00  0.0000E+00  0.0000E+00  0.0000E+00  0.0000E+00  0.0000E+00  0.0000E+00  0.0000E+00  0.0000E+00  0.0000E+00  0.0000E+00  0.0000E+00  0.0000E+00  0.0000E+00  0.0000E+00  0.2165E+02  0.4504E+01  0.0000E+00  0.0000E+00
REACH    5        0    10  0.1560E+00  0.8708E-02  0.8707E-02  0.1124E-05  0.0000E+00  0.2685E+02  0.2685E+02  0.1928E+03  0.3748E+02  0.3747E+02  0.8520E+01  0.8518E+01  0.1652E+01  0.1652E+01  0.0000E+00  0.2978E-02  0.0000E+00  0.0000E+00  0.4024E-01  0.4127E-01  0.4537E+00  0.4512E+00  0.4729E+04  0.4725E+04  0.1213E+03  0.5172E+02  0.0000E+00  0.0000E+00  0.0000E+00  0.0000E+00  0.0000E+00  0.0000E+00  0.0000E+00  0.0000E+00  0.0000E+00  0.0000E+00  0.0000E+00  0.0000E+00  0.0000E+00  0.0000E+00  0.0000E+00  0.0000E+00  0.0000E+00  0.3913E+02  0.8559E+01  0.0000E+00  0.0000E+00
REACH    6        0    10  0.1200E+00  0.6656E-02  0.6652E-02  0.4010E-05  0.0000E+00  0.2067E+02  0.2067E+02  0.1941E+03  0.2361E+02  0.2359E+02  0.5159E+01  0.5154E+01  0.1266E+01  0.1265E+01  0.0000E+00  0.8790E-02  0.0000E+00  0.0000E+00  0.1711E-01  0.1996E-01  0.2500E+00  0.2430E+00  0.3564E+04  0.3551E+04  0.9662E+02  0.4073E+02  0.0000E+00  0.0000E+00  0.0000E+00  0.0000E+00  0.0000E+00  0.0000E+00  0.0000E+00  0.0000E+00  0.0000E+00  0.0000E+00  0.0000E+00  0.0000E+00  0.0000E+00  0.0000E+00  0.0000E+00  0.0000E+00  0.0000E+00  0.2487E+02  0.5174E+01  0.0000E+00  0.0000E+00
REACH    7        0    10  0.1150E+00  0.6376E-02  0.6375E-02  0.7730E-06  0.0000E+00  0.2460E+02  0.2460E+02  0.2412E+03  0.2167E+02  0.2167E+02  0.4749E+01  0.4748E+01  0.1205E+01  0.1205E+01  0.0000E+00  0.1599E-02  0.0000E+00  0.0000E+00  0.1422E-01  0.1474E-01  0.2296E+00  0.2284E+00  0.4019E+04  0.4016E+04  0.9258E+02  0.3907E+02  0.0000E+00  0.0000E+00  0.0000E+00  0.0000E+00  0.0000E+00  0.0000E+00  0.0000E+00  0.0000E+00  0.0000E+00  0.0000E+00  0.0000E+00  0.0000E+00  0.0000E+00  0.0000E+00  0.0000E+00  0.0000E+00  0.0000E+00  0.2288E+02  0.4763E+01  0.0000E+00  0.0000E+00
REACH    8        0    10  0.3248E+00  0.1811E-01  0.1810E-01  0.3730E-05  0.0000E+00  0.5933E+02  0.1046E+02  0.9392E+02  0.7409E+02  0.7407E+02  0.1674E+02  0.1673E+02  0.3432E+01  0.3431E+01  0.1128E-01  0.2485E-01  0.0000E+00  0.2580E-04  0.7892E-01  0.8370E-01  0.8689E+00  0.8602E+00  0.1019E+05  0.1017E+05  0.1161E+03  0.1082E+03  0.0000E+00  0.0000E+00  0.0000E+00  0.0000E+00  0.0000E+00  0.0000E+00  0.0000E+00  0.0000E+00  0.0000E+00  0.0000E+00  0.0000E+00  0.0000E+00  0.0000E+00  0.0000E+00  0.0000E+00  0.0000E+00  0.0000E+00  0.7753E+02  0.1682E+02  0.0000E+00  0.0000E+00
REACH    9        0    10  0.5735E+00  0.3149E-01  0.3148E-01  0.5628E-05  0.0000E+00  0.9236E+02  0.3220E+02  0.1254E+03  0.1212E+03  0.1211E+03  0.2643E+02  0.2642E+02  0.6197E+01  0.6196E+01  0.5069E-01  0.6481E-01  0.0000E+00  0.8520E-04  0.1108E+00  0.1154E+00  0.1372E+01  0.1364E+01  0.1699E+05  0.1697E+05  0.2021E+03  0.1875E+03  0.0000E+00  0.0000E+00  0.0000E+00  0.0000E+00  0.0000E+00  0.0000E+00  0.0000E+00  0.0000E+00  0.0000E+00  0.0000E+00  0.0000E+00  0.0000E+00  0.0000E+00  0.0000E+00  0.0000E+00  0.0000E+00  0.0000E+00  0.1274E+03  0.2654E+02  0.0000E+00  0.0000E+00
REACH   10        0    10  0.7677E+00  0.4222E-01  0.4221E-01  0.1095E-04  0.0000E+00  0.6154E+02  0.4315E+02  0.1309E+03  0.1606E+03  0.1606E+03  0.3503E+02  0.3501E+02  0.8254E+01  0.8252E+01  0.6608E-01  0.9471E-01  0.8520E-04  0.1652E-03  0.1474E+00  0.1569E+00  0.1797E+01  0.1781E+01  0.2226E+05  0.2223E+05  0.2927E+03  0.2524E+03  0.0000E+00  0.0000E+00  0.0000E+00  0.0000E+00  0.0000E+00  0.0000E+00  0.0000E+00  0.0000E+00  0.0000E+00  0.0000E+00  0.0000E+00  0.0000E+00  0.0000E+00  0.0000E+00  0.0000E+00  0.0000E+00  0.0000E+00  0.1689E+03  0.3517E+02  0.0000E+00  0.0000E+00
REACH   11        0    10  0.9102E+00  0.5011E-01  0.5010E-01  0.3603E-05  0.0000E+00  0.6763E+02  0.4947E+02  0.1254E+03  0.1886E+03  0.1886E+03  0.4113E+02  0.4113E+02  0.9754E+01  0.9753E+01  0.1035E+00  0.1138E+00  0.1652E-03  0.2036E-03  0.1801E+00  0.1835E+00  0.2071E+01  0.2065E+01  0.2644E+05  0.2643E+05  0.3112E+03  0.3007E+03  0.0000E+00  0.0000E+00  0.0000E+00  0.0000E+00  0.0000E+00  0.0000E+00  0.0000E+00  0.0000E+00  0.0000E+00  0.0000E+00  0.0000E+00  0.0000E+00  0.0000E+00  0.0000E+00  0.0000E+00  0.0000E+00  0.0000E+00  0.1984E+03  0.4131E+02  0.0000E+00  0.0000E+00
REACH   12        0    10  0.1305E+01  0.7207E-01  0.7206E-01  0.1255E-04  0.0000E+00  0.7191E+02  0.7703E+02  0.1400E+03  0.2763E+03  0.2763E+03  0.6085E+02  0.6083E+02  0.1392E+02  0.1392E+02  0.1387E+00  0.1749E+00  0.2294E-03  0.3056E-03  0.2771E+00  0.2894E+00  0.3070E+01  0.3052E+01  0.3866E+05  0.3862E+05  0.4650E+03  0.4323E+03  0.0000E+00  0.0000E+00  0.0000E+00  0.0000E+00  0.0000E+00  0.0000E+00  0.0000E+00  0.0000E+00  0.0000E+00  0.0000E+00  0.0000E+00  0.0000E+00  0.0000E+00  0.0000E+00  0.0000E+00  0.0000E+00  0.0000E+00  0.2903E+03  0.6112E+02  0.0000E+00  0.0000E+00
REACH   13        0    10  0.1675E+01  0.9248E-01  0.9244E-01  0.3535E-04  0.0000E+00  0.1647E+03  0.8442E+02  0.1180E+03  0.3382E+03  0.3381E+03  0.7443E+02  0.7438E+02  0.1785E+02  0.1785E+02  0.1765E+00  0.3050E+00  0.3056E-03  0.4569E-03  0.3410E+00  0.3849E+00  0.3703E+01  0.3652E+01  0.5215E+05  0.5198E+05  0.6828E+03  0.5598E+03  0.0000E+00  0.0000E+00  0.0000E+00  0.0000E+00  0.0000E+00  0.0000E+00  0.0000E+00  0.0000E+00  0.0000E+00  0.0000E+00  0.0000E+00  0.0000E+00  0.0000E+00  0.0000E+00  0.0000E+00  0.0000E+00  0.0000E+00  0.3562E+03  0.7476E+02  0.0000E+00  0.0000E+00
REACH    1        0    11  0.1667E+00  0.6953E-02  0.6951E-02  0.2104E-05  0.0000E+00  0.2404E+02  0.2404E+02  0.1914E+03  0.2772E+02  0.2771E+02  0.6048E+01  0.6046E+01  0.1579E+01  0.1579E+01  0.0000E+00  0.4657E-02  0.0000E+00  0.0000E+00  0.1305E-01  0.1450E-01  0.2274E+00  0.2247E+00  0.3360E+04  0.3355E+04  0.1107E+03  0.5670E+02  0.0000E+00  0.0000E+00  0.0000E+00  0.0000E+00  0.0000E+00  0.0000E+00  0.0000E+00  0.0000E+00  0.0000E+00  0.0000E+00  0.0000E+00  0.0000E+00  0.0000E+00  0.0000E+00  0.0000E+00  0.0000E+00  0.0000E+00  0.2929E+02  0.6061E+01  0.0000E+00  0.0000E+00
REACH    2        0    11  0.3738E+00  0.1557E-01  0.1556E-01  0.1503E-04  0.0000E+00  0.5896E+02  0.5896E+02  0.2096E+03  0.6152E+02  0.6147E+02  0.1344E+02  0.1342E+02  0.3532E+01  0.3529E+01  0.0000E+00  0.3685E-01  0.0000E+00  0.0000E+00  0.2786E-01  0.3961E-01  0.5073E+00  0.4890E+00  0.8080E+04  0.8039E+04  0.2477E+03  0.1267E+03  0.0000E+00  0.0000E+00  0.0000E+00  0.0000E+00  0.0000E+00  0.0000E+00  0.0000E+00  0.0000E+00  0.0000E+00  0.0000E+00  0.0000E+00  0.0000E+00  0.0000E+00  0.0000E+00  0.0000E+00  0.0000E+00  0.0000E+00  0.6504E+02  0.1346E+02  0.0000E+00  0.0000E+00
REACH    3        0    11  0.1521E+00  0.6462E-02  0.6458E-02  0.3772E-05  0.0000E+00  0.2879E+02  0.2879E+02  0.2498E+03  0.2826E+02  0.2825E+02  0.6413E+01  0.6409E+01  0.1374E+01  0.1373E+01  0.0000E+00  0.7663E-02  0.0000E+00  0.0000E+00  0.1525E-01  0.1775E-01  0.2543E+00  0.2487E+00  0.3619E+04  0.3610E+04  0.1039E+03  0.5370E+02  0.0000E+00  0.0000E+00  0.0000E+00  0.0000E+00  0.0000E+00  0.0000E+00  0.0000E+00  0.0000E+00  0.0000E+00  0.0000E+00  0.0000E+00  0.0000E+00  0.0000E+00  0.0000E+00  0.0000E+00  0.0000E+00  0.0000E+00  0.2963E+02  0.6427E+01  0.0000E+00  0.0000E+00
[...]
REACH    7        0    12  0.1150E+00  0.1244E-01  0.1244E-01  0.5944E-06  0.0000E+00  0.8351E+02  0.8351E+02  0.8866E+03  0.9372E+02  0.9372E+02  0.2042E+02  0.2042E+02  0.3559E+01  0.3559E+01  0.0000E+00  0.4861E-02  0.0000E+00  0.0000E+00  0.2587E-01  0.2757E-01  0.5824E+00  0.5799E+00  0.8707E+04  0.8703E+04  0.1989E+03  0.6878E+02  0.0000E+00  0.0000E+00  0.0000E+00  0.0000E+00  0.0000E+00  0.0000E+00  0.0000E+00  0.0000E+00  0.0000E+00  0.0000E+00  0.0000E+00  0.0000E+00  0.0000E+00  0.0000E+00  0.0000E+00  0.0000E+00  0.0000E+00  0.9728E+02  0.2045E+02  0.0000E+00  0.0000E+00
REACH    8        0    12  0.3248E+00  0.3517E-01  0.3517E-01  0.2822E-05  0.0000E+00  0.2126E+03  0.2792E+02  0.1790E+03  0.2626E+03  0.2625E+03  0.5708E+02  0.5706E+02  0.9925E+01  0.9924E+01  0.3773E-01  0.6842E-01  0.0000E+00  0.8943E-05  0.9847E-01  0.1093E+00  0.1784E+01  0.1770E+01  0.2385E+05  0.2382E+05  0.2079E+03  0.1888E+03  0.0000E+00  0.0000E+00  0.0000E+00  0.0000E+00  0.0000E+00  0.0000E+00  0.0000E+00  0.0000E+00  0.0000E+00  0.0000E+00  0.0000E+00  0.0000E+00  0.0000E+00  0.0000E+00  0.0000E+00  0.0000E+00  0.0000E+00  0.2725E+03  0.5717E+02  0.0000E+00  0.0000E+00
REACH    9        0    12  0.5735E+00  0.6209E-01  0.6208E-01  0.4906E-05  0.0000E+00  0.3050E+03  0.6346E+02  0.2258E+03  0.4451E+03  0.4450E+03  0.9676E+02  0.9674E+02  0.1942E+02  0.1942E+02  0.1674E+00  0.2173E+00  0.0000E+00  0.3652E-04  0.2157E+00  0.2332E+00  0.2918E+01  0.2896E+01  0.3618E+05  0.3614E+05  0.3699E+03  0.3336E+03  0.0000E+00  0.0000E+00  0.0000E+00  0.0000E+00  0.0000E+00  0.0000E+00  0.0000E+00  0.0000E+00  0.0000E+00  0.0000E+00  0.0000E+00  0.0000E+00  0.0000E+00  0.0000E+00  0.0000E+00  0.0000E+00  0.0000E+00  0.4646E+03  0.9697E+02  0.0000E+00  0.0000E+00
REACH   10        0    12  0.7677E+00  0.8308E-01  0.8307E-01  0.9460E-05  0.0000E+00  0.1618E+03  0.8988E+02  0.2380E+03  0.5913E+03  0.5911E+03  0.1285E+03  0.1285E+03  0.2562E+02  0.2561E+02  0.2221E+00  0.3194E+00  0.3652E-04  0.8485E-04  0.2867E+00  0.3207E+00  0.3834E+01  0.3793E+01  0.4759E+05  0.4751E+05  0.5488E+03  0.4486E+03  0.0000E+00  0.0000E+00  0.0000E+00  0.0000E+00  0.0000E+00  0.0000E+00  0.0000E+00  0.0000E+00  0.0000E+00  0.0000E+00  0.0000E+00  0.0000E+00  0.0000E+00  0.0000E+00  0.0000E+00  0.0000E+00  0.0000E+00  0.6171E+03  0.1288E+03  0.0000E+00  0.0000E+00
REACH   11        0    12  0.9102E+00  0.9848E-01  0.9847E-01  0.3121E-05  0.0000E+00  0.1729E+03  0.9446E+02  0.2219E+03  0.7005E+03  0.7004E+03  0.1523E+03  0.1523E+03  0.3003E+02  0.3003E+02  0.3437E+00  0.3829E+00  0.8485E-04  0.1054E-03  0.3638E+00  0.3776E+00  0.4461E+01  0.4448E+01  0.5663E+05  0.5660E+05  0.5592E+03  0.5338E+03  0.0000E+00  0.0000E+00  0.0000E+00  0.0000E+00  0.0000E+00  0.0000E+00  0.0000E+00  0.0000E+00  0.0000E+00  0.0000E+00  0.0000E+00  0.0000E+00  0.0000E+00  0.0000E+00  0.0000E+00  0.0000E+00  0.0000E+00  0.7308E+03  0.1527E+03  0.0000E+00  0.0000E+00
REACH   12        0    12  0.1305E+01  0.1412E+00  0.1412E+00  0.1075E-04  0.0000E+00  0.1631E+03  0.1555E+03  0.2527E+03  0.1016E+04  0.1016E+04  0.2210E+03  0.2209E+03  0.4212E+02  0.4212E+02  0.4513E+00  0.5872E+00  0.1144E-03  0.1745E-03  0.5038E+00  0.5518E+00  0.6551E+01  0.6504E+01  0.8490E+05  0.8480E+05  0.8431E+03  0.7640E+03  0.0000E+00  0.0000E+00  0.0000E+00  0.0000E+00  0.0000E+00  0.0000E+00  0.0000E+00  0.0000E+00  0.0000E+00  0.0000E+00  0.0000E+00  0.0000E+00  0.0000E+00  0.0000E+00  0.0000E+00  0.0000E+00  0.0000E+00  0.1059E+04  0.2215E+03  0.0000E+00  0.0000E+00
REACH   13        0    12  0.1675E+01  0.1807E+00  0.1807E+00  0.3046E-04  0.0000E+00  0.4530E+03  0.1667E+03  0.2047E+03  0.1314E+04  0.1314E+04  0.2858E+03  0.2856E+03  0.5390E+02  0.5389E+02  0.5921E+00  0.1073E+01  0.1745E-03  0.2609E-03  0.6449E+00  0.8155E+00  0.8323E+01  0.8186E+01  0.1141E+06  0.1137E+06  0.1279E+04  0.9811E+03  0.0000E+00  0.0000E+00  0.0000E+00  0.0000E+00  0.0000E+00  0.0000E+00  0.0000E+00  0.0000E+00  0.0000E+00  0.0000E+00  0.0000E+00  0.0000E+00  0.0000E+00  0.0000E+00  0.0000E+00  0.0000E+00  0.0000E+00  0.1369E+04  0.2865E+03  0.0000E+00  0.0000E+00
REACH    1        0  2016  0.1667E+00  0.1134E-01  0.1134E-01  0.2294E-05  0.0000E+00  0.1377E+03  0.1377E+03  0.8361E+02  0.2494E+03  0.2493E+03  0.5421E+02  0.5419E+02  0.2212E+02  0.2211E+02  0.0000E+00  0.4820E-01  0.0000E+00  0.0000E+00  0.3831E+00  0.3975E+00  0.2252E+01  0.2226E+01  0.1914E+05  0.1911E+05  0.2375E+04  0.1639E+04  0.0000E+00  0.0000E+00  0.0000E+00  0.0000E+00  0.0000E+00  0.0000E+00  0.0000E+00  0.0000E+00  0.0000E+00  0.0000E+00  0.0000E+00  0.0000E+00  0.0000E+00  0.0000E+00  0.0000E+00  0.0000E+00  0.0000E+00  0.2715E+03  0.5459E+02  0.0000E+00  0.0000E+00
REACH    2        0  2016  0.3738E+00  0.2541E-01  0.2539E-01  0.1595E-04  0.0000E+00  0.3374E+03  0.3374E+03  0.9156E+02  0.5754E+03  0.5749E+03  0.1252E+03  0.1250E+03  0.4950E+02  0.4945E+02  0.0000E+00  0.3963E+00  0.0000E+00  0.0000E+00  0.8374E+00  0.9604E+00  0.5227E+01  0.5053E+01  0.4609E+05  0.4582E+05  0.5285E+04  0.3604E+04  0.0000E+00  0.0000E+00  0.0000E+00  0.0000E+00  0.0000E+00  0.0000E+00  0.0000E+00  0.0000E+00  0.0000E+00  0.0000E+00  0.0000E+00  0.0000E+00  0.0000E+00  0.0000E+00  0.0000E+00  0.0000E+00  0.0000E+00  0.6247E+03  0.1260E+03  0.0000E+00  0.0000E+00
REACH    3        0  2016  0.1521E+00  0.1045E-01  0.1044E-01  0.4052E-05  0.0000E+00  0.1731E+03  0.1731E+03  0.1154E+03  0.2501E+03  0.2500E+03  0.5441E+02  0.5437E+02  0.1906E+02  0.1904E+02  0.0000E+00  0.8200E-01  0.0000E+00  0.0000E+00  0.3249E+00  0.3498E+00  0.2230E+01  0.2184E+01  0.2189E+05  0.2184E+05  0.2104E+04  0.1342E+04  0.0000E+00  0.0000E+00  0.0000E+00  0.0000E+00  0.0000E+00  0.0000E+00  0.0000E+00  0.0000E+00  0.0000E+00  0.0000E+00  0.0000E+00  0.0000E+00  0.0000E+00  0.0000E+00  0.0000E+00  0.0000E+00  0.0000E+00  0.2691E+03  0.5472E+02  0.0000E+00  0.0000E+00
REACH    4        0  2016  0.1036E+00  0.7108E-02  0.7108E-02  0.3689E-06  0.0000E+00  0.8917E+02  0.8917E+02  0.8571E+02  0.1533E+03  0.1533E+03  0.3334E+02  0.3333E+02  0.1347E+02  0.1346E+02  0.0000E+00  0.9421E-02  0.0000E+00  0.0000E+00  0.2268E+00  0.2298E+00  0.1303E+01  0.1298E+01  0.1174E+05  0.1174E+05  0.1496E+04  0.1031E+04  0.0000E+00  0.0000E+00  0.0000E+00  0.0000E+00  0.0000E+00  0.0000E+00  0.0000E+00  0.0000E+00  0.0000E+00  0.0000E+00  0.0000E+00  0.0000E+00  0.0000E+00  0.0000E+00  0.0000E+00  0.0000E+00  0.0000E+00  0.1667E+03  0.3356E+02  0.0000E+00  0.0000E+00
REACH    5        0  2016  0.1560E+00  0.1072E-01  0.1071E-01  0.9624E-06  0.0000E+00  0.1592E+03  0.1592E+03  0.1050E+03  0.2483E+03  0.2483E+03  0.5395E+02  0.5394E+02  0.1925E+02  0.1925E+02  0.0000E+00  0.2133E-01  0.0000E+00  0.0000E+00  0.3507E+00  0.3573E+00  0.2266E+01  0.2254E+01  0.2108E+05  0.2107E+05  0.2149E+04  0.1361E+04  0.0000E+00  0.0000E+00  0.0000E+00  0.0000E+00  0.0000E+00  0.0000E+00  0.0000E+00  0.0000E+00  0.0000E+00  0.0000E+00  0.0000E+00  0.0000E+00  0.0000E+00  0.0000E+00  0.0000E+00  0.0000E+00  0.0000E+00  0.2675E+03  0.5430E+02  0.0000E+00  0.0000E+00
REACH    6        0  2016  0.1200E+00  0.8238E-02  0.8234E-02  0.3567E-05  0.0000E+00  0.1144E+03  0.1144E+03  0.9487E+02  0.1837E+03  0.1836E+03  0.3998E+02  0.3995E+02  0.1564E+02  0.1563E+02  0.0000E+00  0.6987E-01  0.0000E+00  0.0000E+00  0.2515E+00  0.2727E+00  0.1560E+01  0.1521E+01  0.1470E+05  0.1465E+05  0.1721E+04  0.1170E+04  0.0000E+00  0.0000E+00  0.0000E+00  0.0000E+00  0.0000E+00  0.0000E+00  0.0000E+00  0.0000E+00  0.0000E+00  0.0000E+00  0.0000E+00  0.0000E+00  0.0000E+00  0.0000E+00  0.0000E+00  0.0000E+00  0.0000E+00  0.1993E+03  0.4022E+02  0.0000E+00  0.0000E+00
REACH    7        0  2016  0.1150E+00  0.7897E-02  0.7896E-02  0.6831E-06  0.0000E+00  0.1365E+03  0.1365E+03  0.1181E+03  0.1902E+03  0.1901E+03  0.4142E+02  0.4142E+02  0.1494E+02  0.1494E+02  0.0000E+00  0.1420E-01  0.0000E+00  0.0000E+00  0.2248E+00  0.2291E+00  0.1618E+01  0.1610E+01  0.1665E+05  0.1664E+05  0.1624E+04  0.1075E+04  0.0000E+00  0.0000E+00  0.0000E+00  0.0000E+00  0.0000E+00  0.0000E+00  0.0000E+00  0.0000E+00  0.0000E+00  0.0000E+00  0.0000E+00  0.0000E+00  0.0000E+00  0.0000E+00  0.0000E+00  0.0000E+00  0.0000E+00  0.2051E+03  0.4165E+02  0.0000E+00  0.0000E+00
REACH    8        0  2016  0.3248E+00  0.2231E-01  0.2231E-01  0.3147E-05  0.0000E+00  0.3458E+03  0.1871E+03  0.1054E+03  0.5226E+03  0.5225E+03  0.1136E+03  0.1136E+03  0.4050E+02  0.4049E+02  0.1033E+00  0.1832E+00  0.0000E+00  0.3866E-03  0.7447E+00  0.7700E+00  0.4644E+01  0.4609E+01  0.4470E+05  0.4464E+05  0.2948E+04  0.2867E+04  0.0000E+00  0.0000E+00  0.0000E+00  0.0000E+00  0.0000E+00  0.0000E+00  0.0000E+00  0.0000E+00  0.0000E+00  0.0000E+00  0.0000E+00  0.0000E+00  0.0000E+00  0.0000E+00  0.0000E+00  0.0000E+00  0.0000E+00  0.5632E+03  0.1143E+03  0.0000E+00  0.0000E+00
REACH    9        0  2016  0.5735E+00  0.3897E-01  0.3897E-01  0.5187E-05  0.0000E+00  0.4971E+03  0.4569E+03  0.1345E+03  0.8705E+03  0.8704E+03  0.1893E+03  0.1892E+03  0.7596E+02  0.7594E+02  0.4445E+00  0.5533E+00  0.0000E+00  0.1323E-02  0.1445E+01  0.1478E+01  0.7700E+01  0.7657E+01  0.6816E+05  0.6809E+05  0.5720E+04  0.5581E+04  0.0000E+00  0.0000E+00  0.0000E+00  0.0000E+00  0.0000E+00  0.0000E+00  0.0000E+00  0.0000E+00  0.0000E+00  0.0000E+00  0.0000E+00  0.0000E+00  0.0000E+00  0.0000E+00  0.0000E+00  0.0000E+00  0.0000E+00  0.9469E+03  0.1907E+03  0.0000E+00  0.0000E+00
REACH   10        0  2016  0.7677E+00  0.5224E-01  0.5223E-01  0.1010E-04  0.0000E+00  0.6171E+03  0.6393E+03  0.1402E+03  0.1156E+04  0.1156E+04  0.2513E+03  0.2513E+03  0.1014E+03  0.1013E+03  0.5627E+00  0.7806E+00  0.1323E-02  0.3200E-02  0.1920E+01  0.1986E+01  0.1013E+02  0.1005E+02  0.8972E+05  0.8958E+05  0.7912E+04  0.7512E+04  0.0000E+00  0.0000E+00  0.0000E+00  0.0000E+00  0.0000E+00  0.0000E+00  0.0000E+00  0.0000E+00  0.0000E+00  0.0000E+00  0.0000E+00  0.0000E+00  0.0000E+00  0.0000E+00  0.0000E+00  0.0000E+00  0.0000E+00  0.1258E+04  0.2533E+03  0.0000E+00  0.0000E+00
REACH   11        0  2016  0.9102E+00  0.6201E-01  0.6201E-01  0.3310E-05  0.0000E+00  0.7750E+03  0.7094E+03  0.1323E+03  0.1374E+04  0.1374E+04  0.2987E+03  0.2986E+03  0.1199E+03  0.1199E+03  0.8505E+00  0.9323E+00  0.3200E-02  0.4033E-02  0.2306E+01  0.2332E+01  0.1186E+02  0.1184E+02  0.1070E+06  0.1069E+06  0.9005E+04  0.8902E+04  0.0000E+00  0.0000E+00  0.0000E+00  0.0000E+00  0.0000E+00  0.0000E+00  0.0000E+00  0.0000E+00  0.0000E+00  0.0000E+00  0.0000E+00  0.0000E+00  0.0000E+00  0.0000E+00  0.0000E+00  0.0000E+00  0.0000E+00  0.1495E+04  0.3010E+03  0.0000E+00  0.0000E+00
REACH   12        0  2016  0.1305E+01  0.8910E-01  0.8909E-01  0.1148E-04  0.0000E+00  0.9630E+03  0.1129E+04  0.1488E+03  0.2003E+04  0.2003E+04  0.4354E+03  0.4353E+03  0.1694E+03  0.1694E+03  0.1116E+01  0.1400E+01  0.4420E-02  0.6899E-02  0.3248E+01  0.3338E+01  0.1735E+02  0.1726E+02  0.1601E+06  0.1599E+06  0.1277E+05  0.1237E+05  0.0000E+00  0.0000E+00  0.0000E+00  0.0000E+00  0.0000E+00  0.0000E+00  0.0000E+00  0.0000E+00  0.0000E+00  0.0000E+00  0.0000E+00  0.0000E+00  0.0000E+00  0.0000E+00  0.0000E+00  0.0000E+00  0.0000E+00  0.2173E+04  0.4387E+03  0.0000E+00  0.0000E+00
REACH   13        0  2016  0.1675E+01  0.1144E+00  0.1144E+00  0.3362E-04  0.0000E+00  0.1617E+04  0.1211E+04  0.1276E+03  0.2625E+04  0.2624E+04  0.5709E+03  0.5704E+03  0.2193E+03  0.2192E+03  0.1414E+01  0.2511E+01  0.6899E-02  0.9168E-02  0.4175E+01  0.4531E+01  0.2260E+02  0.2230E+02  0.2167E+06  0.2160E+06  0.1707E+05  0.1550E+05  0.0000E+00  0.0000E+00  0.0000E+00  0.0000E+00  0.0000E+00  0.0000E+00  0.0000E+00  0.0000E+00  0.0000E+00  0.0000E+00  0.0000E+00  0.0000E+00  0.0000E+00  0.0000E+00  0.0000E+00  0.0000E+00  0.0000E+00  0.2846E+04  0.5750E+03  0.0000E+00  0.0000E+00
REACH    1        0   4.0  0.1667E+00  0.1317E-01  0.1317E-01  0.2321E-05  0.0000E+00  0.4248E+03  0.4248E+03  0.1678E+03  0.6997E+03  0.6995E+03  0.1533E+03  0.1532E+03  0.2820E+02  0.2820E+02  0.0000E+00  0.1276E+00  0.0000E+00  0.0000E+00  0.5140E+00  0.5575E+00  0.9011E+01  0.8914E+01  0.6887E+05  0.6875E+05  0.2481E+04  0.1590E+04  0.0000E+00  0.0000E+00  0.0000E+00  0.0000E+00  0.0000E+00  0.0000E+00  0.0000E+00  0.0000E+00  0.0000E+00  0.0000E+00  0.0000E+00  0.0000E+00  0.0000E+00  0.0000E+00  0.0000E+00  0.0000E+00  0.0000E+00  0.7278E+03  0.1538E+03  0.0000E+00  0.0000E+00
REACH    2        0   4.0  0.3738E+00  0.2951E-01  0.2949E-01  0.1555E-04  0.0000E+00  0.1040E+04  0.1040E+04  0.1833E+03  0.1579E+04  0.1577E+04  0.3461E+03  0.3457E+03  0.6314E+02  0.6310E+02  0.0000E+00  0.1014E+01  0.0000E+00  0.0000E+00  0.1113E+01  0.1463E+01  0.2032E+02  0.1971E+02  0.1653E+06  0.1643E+06  0.5535E+04  0.3516E+04  0.0000E+00  0.0000E+00  0.0000E+00  0.0000E+00  0.0000E+00  0.0000E+00  0.0000E+00  0.0000E+00  0.0000E+00  0.0000E+00  0.0000E+00  0.0000E+00  0.0000E+00  0.0000E+00  0.0000E+00  0.0000E+00  0.0000E+00  0.1642E+04  0.3472E+03  0.0000E+00  0.0000E+00
REACH    3        0   4.0  0.1521E+00  0.1212E-01  0.1211E-01  0.4029E-05  0.0000E+00  0.5414E+03  0.5414E+03  0.2332E+03  0.6659E+03  0.6656E+03  0.1474E+03  0.1473E+03  0.2431E+02  0.2430E+02  0.0000E+00  0.2084E+00  0.0000E+00  0.0000E+00  0.4867E+00  0.5584E+00  0.8774E+01  0.8599E+01  0.8084E+05  0.8061E+05  0.2234E+04  0.1369E+04  0.0000E+00  0.0000E+00  0.0000E+00  0.0000E+00  0.0000E+00  0.0000E+00  0.0000E+00  0.0000E+00  0.0000E+00  0.0000E+00  0.0000E+00  0.0000E+00  0.0000E+00  0.0000E+00  0.0000E+00  0.0000E+00  0.0000E+00  0.6901E+03  0.1478E+03  0.0000E+00  0.0000E+00
REACH    4        0   4.0  0.1036E+00  0.8251E-02  0.8251E-02  0.3932E-06  0.0000E+00  0.2850E+03  0.2850E+03  0.1791E+03  0.4363E+03  0.4362E+03  0.9566E+02  0.9564E+02  0.1710E+02  0.1710E+02  0.0000E+00  0.2421E-01  0.0000E+00  0.0000E+00  0.3048E+00  0.3132E+00  0.5473E+01  0.5456E+01  0.4453E+05  0.4450E+05  0.1571E+04  0.1008E+04  0.0000E+00  0.0000E+00  0.0000E+00  0.0000E+00  0.0000E+00  0.0000E+00  0.0000E+00  0.0000E+00  0.0000E+00  0.0000E+00  0.0000E+00  0.0000E+00  0.0000E+00  0.0000E+00  0.0000E+00  0.0000E+00  0.0000E+00  0.4533E+03  0.9596E+02  0.0000E+00  0.0000E+00
REACH    5        0   4.0  0.1560E+00  0.1243E-01  0.1243E-01  0.9741E-06  0.0000E+00  0.4898E+03  0.4898E+03  0.2073E+03  0.6873E+03  0.6872E+03  0.1525E+03  0.1524E+03  0.2456E+02  0.2456E+02  0.0000E+00  0.5457E-01  0.0000E+00  0.0000E+00  0.5583E+00  0.5772E+00  0.9314E+01  0.9269E+01  0.7638E+05  0.7633E+05  0.2275E+04  0.1394E+04  0.0000E+00  0.0000E+00  0.0000E+00  0.0000E+00  0.0000E+00  0.0000E+00  0.0000E+00  0.0000E+00  0.0000E+00  0.0000E+00  0.0000E+00  0.0000E+00  0.0000E+00  0.0000E+00  0.0000E+00  0.0000E+00  0.0000E+00  0.7118E+03  0.1530E+03  0.0000E+00  0.0000E+00
REACH    6        0   4.0  0.1200E+00  0.9563E-02  0.9559E-02  0.3587E-05  0.0000E+00  0.3664E+03  0.3664E+03  0.1985E+03  0.5095E+03  0.5093E+03  0.1118E+03  0.1118E+03  0.1988E+02  0.1987E+02  0.0000E+00  0.1776E+00  0.0000E+00  0.0000E+00  0.3344E+00  0.3949E+00  0.6362E+01  0.6216E+01  0.5585E+05  0.5566E+05  0.1814E+04  0.1153E+04  0.0000E+00  0.0000E+00  0.0000E+00  0.0000E+00  0.0000E+00  0.0000E+00  0.0000E+00  0.0000E+00  0.0000E+00  0.0000E+00  0.0000E+00  0.0000E+00  0.0000E+00  0.0000E+00  0.0000E+00  0.0000E+00  0.0000E+00  0.5293E+03  0.1121E+03  0.0000E+00  0.0000E+00
REACH    7        0   4.0  0.1150E+00  0.9165E-02  0.9165E-02  0.6909E-06  0.0000E+00  0.4368E+03  0.4368E+03  0.2468E+03  0.4945E+03  0.4944E+03  0.1087E+03  0.1087E+03  0.1903E+02  0.1903E+02  0.0000E+00  0.3393E-01  0.0000E+00  0.0000E+00  0.2899E+00  0.3014E+00  0.6132E+01  0.6104E+01  0.6326E+05  0.6321E+05  0.1725E+04  0.1076E+04  0.0000E+00  0.0000E+00  0.0000E+00  0.0000E+00  0.0000E+00  0.0000E+00  0.0000E+00  0.0000E+00  0.0000E+00  0.0000E+00  0.0000E+00  0.0000E+00  0.0000E+00  0.0000E+00  0.0000E+00  0.0000E+00  0.0000E+00  0.5135E+03  0.1090E+03  0.0000E+00  0.0000E+00
REACH    8        0   4.0  0.3248E+00  0.2588E-01  0.2588E-01  0.3158E-05  0.0000E+00  0.1074E+04  0.2190E+03  0.1211E+03  0.1423E+04  0.1423E+04  0.3152E+03  0.3151E+03  0.5166E+02  0.5165E+02  0.2629E+00  0.4747E+00  0.0000E+00  0.2532E-03  0.1186E+01  0.1261E+01  0.1875E+02  0.1862E+02  0.1638E+06  0.1635E+06  0.3018E+04  0.2923E+04  0.0000E+00  0.0000E+00  0.0000E+00  0.0000E+00  0.0000E+00  0.0000E+00  0.0000E+00  0.0000E+00  0.0000E+00  0.0000E+00  0.0000E+00  0.0000E+00  0.0000E+00  0.0000E+00  0.0000E+00  0.0000E+00  0.0000E+00  0.1475E+04  0.3163E+03  0.0000E+00  0.0000E+00
REACH    9        0   4.0  0.5735E+00  0.4526E-01  0.4526E-01  0.5217E-05  0.0000E+00  0.1532E+04  0.5303E+03  0.1531E+03  0.2412E+04  0.2412E+04  0.5285E+03  0.5283E+03  0.9690E+02  0.9688E+02  0.1142E+01  0.1425E+01  0.0000E+00  0.8332E-03  0.2137E+01  0.2234E+01  0.3038E+02  0.3022E+02  0.2446E+06  0.2443E+06  0.5601E+04  0.5429E+04  0.0000E+00  0.0000E+00  0.0000E+00  0.0000E+00  0.0000E+00  0.0000E+00  0.0000E+00  0.0000E+00  0.0000E+00  0.0000E+00  0.0000E+00  0.0000E+00  0.0000E+00  0.0000E+00  0.0000E+00  0.0000E+00  0.0000E+00  0.2510E+04  0.5306E+03  0.0000E+00  0.0000E+00
REACH   10        0   4.0  0.7677E+00  0.6067E-01  0.6066E-01  0.1006E-04  0.0000E+00  0.1036E+04  0.7493E+03  0.1620E+03  0.3226E+04  0.3225E+04  0.7067E+03  0.7065E+03  0.1292E+03  0.1292E+03  0.1449E+01  0.1969E+01  0.8332E-03  0.1865E-02  0.2833E+01  0.3010E+01  0.4053E+02  0.4026E+02  0.3248E+06  0.3243E+06  0.7793E+04  0.7308E+04  0.0000E+00  0.0000E+00  0.0000E+00  0.0000E+00  0.0000E+00  0.0000E+00  0.0000E+00  0.0000E+00  0.0000E+00  0.0000E+00  0.0000E+00  0.0000E+00  0.0000E+00  0.0000E+00  0.0000E+00  0.0000E+00  0.0000E+00  0.3356E+04  0.7095E+03  0.0000E+00  0.0000E+00
REACH   11        0   4.0  0.9102E+00  0.7201E-01  0.7200E-01  0.3326E-05  0.0000E+00  0.1184E+04  0.8115E+03  0.1497E+03  0.3830E+04  0.3829E+04  0.8391E+03  0.8390E+03  0.1528E+03  0.1528E+03  0.2146E+01  0.2366E+01  0.1865E-02  0.2318E-02  0.3468E+01  0.3544E+01  0.4766E+02  0.4756E+02  0.3903E+06  0.3901E+06  0.8800E+04  0.8676E+04  0.0000E+00  0.0000E+00  0.0000E+00  0.0000E+00  0.0000E+00  0.0000E+00  0.0000E+00  0.0000E+00  0.0000E+00  0.0000E+00  0.0000E+00  0.0000E+00  0.0000E+00  0.0000E+00  0.0000E+00  0.0000E+00  0.0000E+00  0.3984E+04  0.8426E+03  0.0000E+00  0.0000E+00
REACH   12        0   4.0  0.1305E+01  0.1034E+00  0.1034E+00  0.1133E-04  0.0000E+00  0.1243E+04  0.1313E+04  0.1691E+03  0.5548E+04  0.5547E+04  0.1219E+04  0.1219E+04  0.2160E+03  0.2160E+03  0.2840E+01  0.3495E+01  0.2571E-02  0.3842E-02  0.4998E+01  0.5224E+01  0.6986E+02  0.6957E+02  0.5861E+06  0.5854E+06  0.1265E+05  0.1221E+05  0.0000E+00  0.0000E+00  0.0000E+00  0.0000E+00  0.0000E+00  0.0000E+00  0.0000E+00  0.0000E+00  0.0000E+00  0.0000E+00  0.0000E+00  0.0000E+00  0.0000E+00  0.0000E+00  0.0000E+00  0.0000E+00  0.0000E+00  0.5767E+04  0.1224E+04  0.0000E+00  0.0000E+00
REACH   13        0   4.0  0.1675E+01  0.1328E+00  0.1328E+00  0.3292E-04  0.0000E+00  0.2877E+04  0.1403E+04  0.1433E+03  0.7082E+04  0.7078E+04  0.1556E+04  0.1555E+04  0.2788E+03  0.2787E+03  0.3529E+01  0.6349E+01  0.3842E-02  0.6309E-02  0.6290E+01  0.7279E+01  0.8816E+02  0.8710E+02  0.8001E+06  0.7972E+06  0.1717E+05  0.1543E+05  0.0000E+00  0.0000E+00  0.0000E+00  0.0000E+00  0.0000E+00  0.0000E+00  0.0000E+00  0.0000E+00  0.0000E+00  0.0000E+00  0.0000E+00  0.0000E+00  0.0000E+00  0.0000E+00  0.0000E+00  0.0000E+00  0.0000E+00  0.7363E+04  0.1562E+04  0.0000E+00  0.0000E+00
