1
    SWAT Dec 23 2016    VER 2016/Rev 664                                                                 0/ 0/   0      0: 0: 0

    General Input/Output section (file.cio):                                        
    2/7/2020 21:40:57 QSWAT Workflow v1.5.2                                         
                                                                                    


LULC  HRU       GIS  SUB  MGT  MON   AREAkm2  PRECIPmm SNOFALLmm SNOMELTmm     IRRmm     PETmm      ETmm SW_INITmm  SW_ENDmm    PERCmm GW_RCHGmm DA_RCHGmm   REVAPmm  SA_IRRmm  DA_IRRmm   SA_STmm   DA_STmmSURQ_GENmmSURQ_CNTmm   TLOSSmm LATQGENmm    GW_Qmm    WYLDmm   DAILYCN TMP_AVdgC TMP_MXdgC TMP_MNdgCSOL_TMPdgCSOLARMJ/m2  SYLDt/ha  USLEt/haN_APPkg/haP_APPkg/haNAUTOkg/haPAUTOkg/ha NGRZkg/ha PGRZkg/haNCFRTkg/haPCFRTkg/haNRAINkg/ha NFIXkg/ha F-MNkg/ha A-MNkg/ha A-SNkg/ha F-MPkg/haAO-LPkg/ha L-APkg/ha A-SPkg/ha DNITkg/ha  NUPkg/ha  PUPkg/ha ORGNkg/ha ORGPkg/ha SEDPkg/haNSURQkg/haNLATQkg/ha NO3Lkg/haNO3GWkg/ha SOLPkg/ha P_GWkg/ha    W_STRS  TMP_STRS    N_STRS    P_STRS  BIOMt/ha       LAI   YLDt/ha  BACTPct   BACTLPct WTAB CLIm WTAB SOLm     SNOmm CMUPkg/haCMTOTkg/ha   QTILEmm TNO3kg/ha LNO3kg/ha  GW_Q_Dmm LATQCNTmm TVAPkg/ha
FRSE    1 000010001    1    0    1.16673E+00   576.600     0.000     0.000     0.000   117.421    87.656    91.561    96.092    11.040     5.647     0.282     2.348     0.000     0.000   959.134  2000.520   162.742   162.742     0.000   295.843     0.000   458.717    84.665    26.316    28.503    24.129    25.506    15.425    11.565     8.121     0.000     0.000     0.000     0.000     0.000     0.000     0.000     0.000     0.000     0.000     0.010     1.094    -0.823     0.002     0.187     0.172     0.291     0.000     0.000     0.000    25.538     3.120     2.502     0.005     0.427     0.285     0.000     0.009     0.000     0.000     0.000     0.000     0.000     0.000     0.000     0.000 .00000E+00 .00000E+00 0.240E-04 0.404E+04 0.000E+00 0.000E+00 0.000E+00 0.000E+00 0.000E+00 0.427E+00     0.133   295.843     0.000
FRSE    2 000020001    2    0    1.10260E-03   576.600     0.000     0.000     0.000   117.424    90.118    92.965    96.138   318.959   206.555    10.328     2.348     0.000     0.000  1086.714  2024.318   165.585   149.794     0.000     0.016   168.155   324.941    84.922    26.316    28.503    24.129    25.523    15.425     0.000     0.104     0.000     0.000     0.000     0.000     0.000     0.000     0.000     0.000     0.000     0.000     0.009     1.152    -0.914     0.002     0.197    -0.293    -0.194     0.000     0.000     0.000     0.000     0.000     0.000     0.003     0.000     1.804     0.052     0.038     0.000     0.000     0.000     0.000     0.000     0.000     0.000     0.000 .00000E+00 .00000E+00 0.339E-04 0.404E+04 0.000E+00 0.000E+00 0.000E+00 0.000E+00 0.000E+00 0.187E-04     6.976     0.016     0.000
FRSE    3 000020002    2    0    1.30781E-03   576.600     0.000     0.000     0.000   117.424    90.115    92.941    96.093   312.832   202.475    10.124     2.348     0.000     0.000  1084.393  2023.837   165.517   164.941     0.000     4.906   164.781   341.462    84.918    26.316    28.503    24.129    25.523    15.425     0.306     0.550     0.000     0.000     0.000     0.000     0.000     0.000     0.000     0.000     0.000     0.000     0.008     1.141    -0.906     0.002     0.195    -0.273    -0.175     0.000     0.000     0.000     4.394     0.536     0.388     0.003     0.005     1.773     0.051     0.034     0.000     0.000     0.000     0.000     0.000     0.000     0.000     0.000 .00000E+00 .00000E+00 0.323E-04 0.404E+04 0.000E+00 0.000E+00 0.000E+00 0.000E+00 0.000E+00 0.452E-02     6.834     4.906     0.000
FRSE    4 000020003    2    0    1.37337E+00   576.600     0.000     0.000     0.000   117.424    87.674    91.580    96.092    11.258     5.779     0.289     2.348     0.000     0.000   963.155  2000.532   162.800   162.800     0.000   295.582     0.000   458.519    84.669    26.316    28.503    24.129    25.507    15.425    12.615     6.936     0.000     0.000     0.000     0.000     0.000     0.000     0.000     0.000     0.000     0.000     0.010     1.093    -0.823     0.002     0.187     0.172     0.291     0.000     0.000     0.000    26.141     3.193     2.564     0.005     0.427     0.294     0.000     0.009     0.000     0.000     0.000     0.000     0.000     0.000     0.000     0.000 .00000E+00 .00000E+00 0.240E-04 0.404E+04 0.000E+00 0.000E+00 0.000E+00 0.000E+00 0.000E+00 0.427E+00     0.137   295.582     0.000
FRSE    5 000030001    3    0    1.10261E-03   576.600     0.000     0.000     0.000   117.408    90.113    92.965    96.137   318.968   206.559    10.328     2.348     0.000     0.000  1086.716  2024.322   165.587   149.796     0.000     0.016   168.154   324.942    84.922    26.316    28.503    24.129    25.523    15.425     0.000     0.104     0.000     0.000     0.000     0.000     0.000     0.000     0.000     0.000     0.000     0.000     0.009     1.152    -0.914     0.002     0.197    -0.293    -0.194     0.000     0.000     0.000     0.000     0.000     0.000     0.003     0.000     1.804     0.052     0.038     0.000     0.000     0.000     0.000     0.000     0.000     0.000     0.000 .00000E+00 .00000E+00 0.341E-04 0.404E+04 0.000E+00 0.000E+00 0.000E+00 0.000E+00 0.000E+00 0.187E-04     6.976     0.016     0.000
FRSE    6 000030002    3    0    1.10261E-03   576.600     0.000     0.000     0.000   117.408    90.110    92.938    96.088   311.172   201.373    10.069     2.348     0.000     0.000  1083.744  2023.698   165.510   165.053     0.000     6.225   163.867   341.940    84.918    26.316    28.503    24.129    25.523    15.425     0.354     0.664     0.000     0.000     0.000     0.000     0.000     0.000     0.000     0.000     0.000     0.000     0.008     1.140    -0.905     0.002     0.195    -0.270    -0.172     0.000     0.000     0.000     4.964     0.606     0.439     0.003     0.006     1.767     0.050     0.033     0.000     0.000     0.000     0.000     0.000     0.000     0.000     0.000 .00000E+00 .00000E+00 0.325E-04 0.404E+04 0.000E+00 0.000E+00 0.000E+00 0.000E+00 0.000E+00 0.573E-02     6.795     6.225     0.000
FRSE    7 000030003    3    0    1.12364E+00   576.600     0.000     0.000     0.000   117.408    87.366    91.222    96.091     6.686     3.147     0.157     2.348     0.000     0.000   886.673  2000.256   161.719   161.719     0.000   300.889     0.000   462.670    84.602    26.316    28.503    24.129    25.505    15.425    18.357    12.543     0.000     0.000     0.000     0.000     0.000     0.000     0.000     0.000     0.000     0.000     0.008     1.092    -0.815     0.002     0.187     0.183     0.297     0.000     0.000     0.000    29.343     3.583     2.889     0.005     0.418     0.129     0.000     0.008     0.000     0.000     0.000     0.000     0.000     0.000     0.000     0.000 .00000E+00 .00000E+00 0.234E-04 0.404E+04 0.000E+00 0.000E+00 0.000E+00 0.000E+00 0.000E+00 0.418E+00     0.062   300.889     0.000
FRSD    8 000030004    3    0    1.28216E-01   576.600     0.000     0.000     0.000   117.408    82.669    90.674    96.159     3.514     1.156     0.058     2.348     0.000     0.000   801.863  2000.068   224.467   224.467     0.000   246.753     0.000   471.232    89.093    26.316    28.503    24.129    25.313    15.425     0.321     0.311     0.000     0.000     0.000     0.000     0.000     0.000     0.000     0.000     0.000     0.000     0.334     1.116    -0.774     0.288     0.191     0.493     0.587     0.000     0.000     0.000     1.720     0.226     0.185     0.037     0.366     0.011     0.000     0.044     0.000     0.000     0.000     0.000     0.000     0.000     0.000     0.000 .00000E+00 .00000E+00 0.318E-04 0.404E+04 0.000E+00 0.000E+00 0.000E+00 0.000E+00 0.000E+00 0.366E+00     0.012   246.753     0.000
FRSE    9 000040001    4    0    1.10260E-03   576.600     0.000     0.000     0.000   117.400    90.108    92.938    96.087   310.898   201.190    10.060     2.348     0.000     0.000  1083.639  2023.671   165.511   165.069     0.000     6.444   163.714   342.016    84.918    26.316    28.503    24.129    25.523    15.425     0.381     0.827     0.000     0.000     0.000     0.000     0.000     0.000     0.000     0.000     0.000     0.000     0.008     1.139    -0.904     0.002     0.194    -0.269    -0.170     0.000     0.000     0.000     5.243     0.640     0.464     0.003     0.006     1.766     0.050     0.033     0.000     0.000     0.000     0.000     0.000     0.000     0.000     0.000 .00000E+00 .00000E+00 0.326E-04 0.404E+04 0.000E+00 0.000E+00 0.000E+00 0.000E+00 0.000E+00 0.593E-02     6.789     6.444     0.000
FRSE   10 000040002    4    0    1.10353E+00   576.600     0.000     0.000     0.000   117.400    87.366    91.228    96.090     7.666     3.622     0.181     2.348     0.000     0.000   900.177  2000.300   161.741   161.741     0.000   299.941     0.000   461.754    84.603    26.316    28.503    24.129    25.505    15.425    12.957     9.045     0.000     0.000     0.000     0.000     0.000     0.000     0.000     0.000     0.000     0.000     0.010     1.095    -0.816     0.002     0.187     0.181     0.297     0.000     0.000     0.000    26.726     3.265     2.621     0.005     0.413     0.154     0.000     0.009     0.000     0.000     0.000     0.000     0.000     0.000     0.000     0.000 .00000E+00 .00000E+00 0.234E-04 0.404E+04 0.000E+00 0.000E+00 0.000E+00 0.000E+00 0.000E+00 0.413E+00     0.072   299.941     0.000
FRSE   11 000050001    5    0    1.10260E-03   576.600     0.000     0.000     0.000   117.413    90.115    92.965    96.138   318.965   206.558    10.328     2.348     0.000     0.000  1086.724  2024.321   165.586   149.795     0.000     0.016   168.155   324.942    84.922    26.316    28.503    24.129    25.523    15.425     0.000     0.104     0.000     0.000     0.000     0.000     0.000     0.000     0.000     0.000     0.000     0.000     0.009     1.152    -0.914     0.002     0.197    -0.293    -0.194     0.000     0.000     0.000     0.000     0.000     0.000     0.003     0.000     1.804     0.052     0.038     0.000     0.000     0.000     0.000     0.000     0.000     0.000     0.000 .00000E+00 .00000E+00 0.340E-04 0.404E+04 0.000E+00 0.000E+00 0.000E+00 0.000E+00 0.000E+00 0.187E-04     6.976     0.016     0.000
FRSE   12 000050002    5    0    1.10260E-03   576.600     0.000     0.000     0.000   117.413    90.114    92.954    96.116   316.035   204.606    10.230     2.348     0.000     0.000  1085.633  2024.083   165.554   164.230     0.000     2.274   166.540   339.952    84.920    26.316    28.503    24.129    25.523    15.425     0.142     0.324     0.000     0.000     0.000     0.000     0.000     0.000     0.000     0.000     0.000     0.000     0.009     1.147    -0.910     0.002     0.196    -0.283    -0.186     0.000     0.000     0.000     2.448     0.299     0.214     0.003     0.002     1.788     0.052     0.037     0.000     0.000     0.000     0.000     0.000     0.000     0.000     0.000 .00000E+00 .00000E+00 0.325E-04 0.404E+04 0.000E+00 0.000E+00 0.000E+00 0.000E+00 0.000E+00 0.213E-02     6.908     2.274     0.000
FRSE   13 000050003    5    0    1.11348E+00   576.600     0.000     0.000     0.000   117.413    87.367    91.222    96.091     6.859     3.229     0.161     2.348     0.000     0.000   890.105  2000.268   161.718   161.718     0.000   300.723     0.000   462.505    84.602    26.316    28.503    24.129    25.505    15.425    16.462    11.363     0.000     0.000     0.000     0.000     0.000     0.000     0.000     0.000     0.000     0.000     0.008     1.093    -0.815     0.002     0.187     0.182     0.297     0.000     0.000     0.000    28.503     3.481     2.803     0.005     0.418     0.132     0.000     0.008     0.000     0.000     0.000     0.000     0.000     0.000     0.000     0.000 .00000E+00 .00000E+00 0.233E-04 0.404E+04 0.000E+00 0.000E+00 0.000E+00 0.000E+00 0.000E+00 0.418E+00     0.064   300.723     0.000
FRSD   14 000050004    5    0    1.42272E-01   576.600     0.000     0.000     0.000   117.413    82.671    90.674    96.159     3.513     1.156     0.058     2.348     0.000     0.000   801.881  2000.069   224.466   224.466     0.000   246.751     0.000   471.230    89.093    26.316    28.503    24.129    25.313    15.425     0.337     0.311     0.000     0.000     0.000     0.000     0.000     0.000     0.000     0.000     0.000     0.000     0.333     1.116    -0.774     0.288     0.191     0.493     0.588     0.000     0.000     0.000     1.788     0.235     0.192     0.037     0.366     0.011     0.000     0.044     0.000     0.000     0.000     0.000     0.000     0.000     0.000     0.000 .00000E+00 .00000E+00 0.318E-04 0.404E+04 0.000E+00 0.000E+00 0.000E+00 0.000E+00 0.000E+00 0.366E+00     0.012   246.751     0.000
FRSE   15 000060001    6    0    1.12004E+00   576.600     0.000     0.000     0.000   117.399    87.364    91.223    96.090     7.206     3.392     0.170     2.348     0.000     0.000   894.988  2000.276   161.721   161.721     0.000   300.399     0.000   462.187    84.602    26.316    28.503    24.129    25.505    15.425    14.377     9.866     0.000     0.000     0.000     0.000     0.000     0.000     0.000     0.000     0.000     0.000     0.009     1.094    -0.816     0.002     0.187     0.182     0.297     0.000     0.000     0.000    27.500     3.359     2.700     0.005     0.415     0.140     0.000     0.009     0.000     0.000     0.000     0.000     0.000     0.000     0.000     0.000 .00000E+00 .00000E+00 0.235E-04 0.404E+04 0.000E+00 0.000E+00 0.000E+00 0.000E+00 0.000E+00 0.415E+00     0.067   300.399     0.000
FRSE   16 000070001    7    0    1.11502E+00   576.600     0.000     0.000     0.000   117.366    87.358    91.226    96.088     6.720     3.162     0.158     2.347     0.000     0.000   887.120  2000.258   161.729   161.729     0.000   300.867     0.000   462.658    84.603    26.316    28.503    24.129    25.505    15.425    17.874    12.319     0.000     0.000     0.000     0.000     0.000     0.000     0.000     0.000     0.000     0.000     0.008     1.093    -0.815     0.002     0.187     0.183     0.297     0.000     0.000     0.000    29.137     3.558     2.868     0.005     0.418     0.130     0.000     0.008     0.000     0.000     0.000     0.000     0.000     0.000     0.000     0.000 .00000E+00 .00000E+00 0.238E-04 0.404E+04 0.000E+00 0.000E+00 0.000E+00 0.000E+00 0.000E+00 0.418E+00     0.062   300.867     0.000
FRSE   17 000080001    8    0    1.16827E-01   576.600     0.000     0.000     0.000   117.333    87.350    91.229    96.085     6.999     3.292     0.165     2.347     0.000     0.000   892.379  2000.268   161.737   161.737     0.000   300.613     0.000   462.414    84.603    26.316    28.503    24.129    25.505    15.425    12.073    10.474     0.000     0.000     0.000     0.000     0.000     0.000     0.000     0.000     0.000     0.000     0.010     1.096    -0.817     0.002     0.187     0.181     0.297     0.000     0.000     0.000    26.238     3.205     2.571     0.005     0.419     0.135     0.000     0.009     0.000     0.000     0.000     0.000     0.000     0.000     0.000     0.000 .00000E+00 .00000E+00 0.241E-04 0.404E+04 0.000E+00 0.000E+00 0.000E+00 0.000E+00 0.000E+00 0.419E+00     0.065   300.613     0.000
FRSE   18 000090001    9    0    1.20521E-03   576.600     0.000     0.000     0.000   117.372    90.104    92.966    96.133   318.792   206.440    10.322     2.347     0.000     0.000  1086.659  2024.304   165.589   159.424     0.000     0.163   168.048   334.606    84.923    26.316    28.503    24.129    25.523    15.425     0.039     0.095     0.000     0.000     0.000     0.000     0.000     0.000     0.000     0.000     0.000     0.000     0.009     1.151    -0.913     0.002     0.197    -0.291    -0.193     0.000     0.000     0.000     0.784     0.096     0.068     0.003     0.000     1.802     0.052     0.039     0.000     0.000     0.000     0.000     0.000     0.000     0.000     0.000 .00000E+00 .00000E+00 0.332E-04 0.404E+04 0.000E+00 0.000E+00 0.000E+00 0.000E+00 0.000E+00 0.154E-03     6.970     0.163     0.000
FRSE   19 000090002    9    0    1.32833E-01   576.600     0.000     0.000     0.000   117.372    87.690    91.614    96.088    11.637     6.006     0.300     2.347     0.000     0.000   969.754  2000.563   162.880   162.880     0.000   295.181     0.000   458.205    84.675    26.316    28.503    24.129    25.507    15.425     9.288     7.181     0.000     0.000     0.000     0.000     0.000     0.000     0.000     0.000     0.000     0.000     0.012     1.096    -0.825     0.003     0.187     0.169     0.289     0.000     0.000     0.000    24.031     2.936     2.347     0.005     0.430     0.309     0.000     0.009     0.000     0.000     0.000     0.000     0.000     0.000     0.000     0.000 .00000E+00 .00000E+00 0.246E-04 0.404E+04 0.000E+00 0.000E+00 0.000E+00 0.000E+00 0.000E+00 0.430E+00     0.144   295.181     0.000
FRSE   20 000100001   10    0    1.10260E-03   576.600     0.000     0.000     0.000   117.379    90.106    92.966    96.135   318.977   206.566    10.328     2.348     0.000     0.000  1086.729  2024.320   165.590   149.798     0.000     0.016   168.154   324.943    84.923    26.316    28.503    24.129    25.523    15.425     0.000     0.104     0.000     0.000     0.000     0.000     0.000     0.000     0.000     0.000     0.000     0.000     0.009     1.152    -0.914     0.002     0.197    -0.293    -0.194     0.000     0.000     0.000     0.000     0.000     0.000     0.003     0.000     1.804     0.052     0.038     0.000     0.000     0.000     0.000     0.000     0.000     0.000     0.000 .00000E+00 .00000E+00 0.344E-04 0.404E+04 0.000E+00 0.000E+00 0.000E+00 0.000E+00 0.000E+00 0.187E-04     6.975     0.016     0.000
FRSE   21 000100002   10    0    1.90393E-01   576.600     0.000     0.000     0.000   117.379    87.574    91.478    96.089    10.143     5.104     0.255     2.348     0.000     0.000   942.610  2000.456   162.487   162.487     0.000   296.942     0.000   459.544    84.650    26.316    28.503    24.129    25.506    15.425    11.181    10.496     0.000     0.000     0.000     0.000     0.000     0.000     0.000     0.000     0.000     0.000     0.011     1.095    -0.821     0.002     0.187     0.174     0.292     0.000     0.000     0.000    25.381     3.100     2.485     0.005     0.424     0.250     0.000     0.009     0.000     0.000     0.000     0.000     0.000     0.000     0.000     0.000 .00000E+00 .00000E+00 0.242E-04 0.404E+04 0.000E+00 0.000E+00 0.000E+00 0.000E+00 0.000E+00 0.424E+00     0.116   296.942     0.000
FRSE   22 000110001   11    0    1.22470E-01   576.600     0.000     0.000     0.000   117.343    87.353    91.228    96.086     6.780     3.190     0.159     2.347     0.000     0.000   888.160  2000.258   161.734   161.734     0.000   300.817     0.000   462.614    84.603    26.316    28.503    24.129    25.505    15.425    14.218    11.915     0.000     0.000     0.000     0.000     0.000     0.000     0.000     0.000     0.000     0.000     0.009     1.095    -0.816     0.002     0.187     0.182     0.297     0.000     0.000     0.000    27.412     3.348     2.691     0.005     0.419     0.131     0.000     0.009     0.000     0.000     0.000     0.000     0.000     0.000     0.000     0.000 .00000E+00 .00000E+00 0.240E-04 0.404E+04 0.000E+00 0.000E+00 0.000E+00 0.000E+00 0.000E+00 0.419E+00     0.063   300.817     0.000
FRSE   23 000120001   12    0    1.69667E-01   576.600     0.000     0.000     0.000   117.341    87.352    91.228    96.086     6.990     3.289     0.164     2.347     0.000     0.000   892.264  2000.268   161.735   161.735     0.000   300.618     0.000   462.418    84.603    26.316    28.503    24.129    25.505    15.425    14.386    10.527     0.000     0.000     0.000     0.000     0.000     0.000     0.000     0.000     0.000     0.000     0.009     1.094    -0.816     0.002     0.187     0.182     0.297     0.000     0.000     0.000    27.499     3.359     2.700     0.005     0.418     0.135     0.000     0.009     0.000     0.000     0.000     0.000     0.000     0.000     0.000     0.000 .00000E+00 .00000E+00 0.240E-04 0.404E+04 0.000E+00 0.000E+00 0.000E+00 0.000E+00 0.000E+00 0.418E+00     0.065   300.618     0.000
FRSE   24 000130001   13    0    1.41042E-03   576.600     0.000     0.000     0.000   117.326    91.351   161.625   165.089   311.790   201.114    10.056     2.347     0.000     0.000  1084.146  2023.531   170.195   154.156     0.000     0.011   163.199   324.100    85.291    26.316    28.503    24.129    24.883    15.425     0.014     0.079     0.000     0.000     0.000     0.000     0.000     0.000     0.000     0.000     0.000     0.000     0.019     1.706    -1.343     0.004     0.292    -0.086    -0.015     0.000     0.000     0.000     0.296     0.036     0.024     0.004     0.000     3.244     0.087     0.045     0.000     0.000     0.000     0.000     0.000     0.000     0.000     0.000 .00000E+00 .00000E+00 0.401E-04 0.444E+04 0.000E+00 0.000E+00 0.000E+00 0.000E+00 0.000E+00 0.161E-04     6.734     0.011     0.000
FRSE   25 000130002   13    0    1.20520E-03   576.600     0.000     0.000     0.000   117.326    91.345   161.600   165.043   309.335   199.468     9.973     2.347     0.000     0.000  1083.204  2023.337   170.158   169.045     0.000     1.935   161.833   339.490    85.289    26.316    28.503    24.129    24.883    15.425     0.112     0.202     0.000     0.000     0.000     0.000     0.000     0.000     0.000     0.000     0.000     0.000     0.019     1.702    -1.340     0.004     0.291    -0.079    -0.011     0.000     0.000     0.000     1.906     0.233     0.156     0.004     0.002     3.232     0.086     0.046     0.000     0.000     0.000     0.000     0.000     0.000     0.000     0.000 .00000E+00 .00000E+00 0.388E-04 0.444E+04 0.000E+00 0.000E+00 0.000E+00 0.000E+00 0.000E+00 0.241E-02     6.677     1.935     0.000
FRSE   26 000130003   13    0    1.21546E-02   576.600     0.000     0.000     0.000   117.326    91.030   161.282   164.685   193.657   123.011     6.151     2.347     0.000     0.000  1045.245  2014.188   169.700   169.700     0.000   109.021    98.537   381.294    85.260    26.316    28.503    24.129    24.879    15.425     1.430     2.078     0.000     0.000     0.000     0.000     0.000     0.000     0.000     0.000     0.000     0.000     0.020     1.672    -1.315     0.004     0.286     0.057     0.127     0.000     0.000     0.000    12.251     1.497     1.108     0.004     0.149     2.872     0.045     0.023     0.000     0.000     0.000     0.000     0.000     0.000     0.000     0.000 .00000E+00 .00000E+00 0.387E-04 0.444E+04 0.000E+00 0.000E+00 0.000E+00 0.000E+00 0.000E+00 0.149E+00     4.036   109.021     0.000
FRSE   27 000130004   13    0    1.30781E-03   576.600     0.000     0.000     0.000   117.326    88.444    92.272    96.084    26.824    15.372     0.769     2.347     0.000     0.000  1003.328  2001.603   164.198   164.198     0.000   279.790     9.890   454.315    84.797    26.316    28.503    24.129    25.511    15.425     3.344     4.617     0.000     0.000     0.000     0.000     0.000     0.000     0.000     0.000     0.000     0.000     0.014     1.107    -0.846     0.003     0.189     0.135     0.244     0.000     0.000     0.000    17.843     2.180     1.716     0.004     0.441     0.813     0.001     0.013     0.000     0.000     0.000     0.000     0.000     0.000     0.000     0.000 .00000E+00 .00000E+00 0.286E-04 0.404E+04 0.000E+00 0.000E+00 0.000E+00 0.000E+00 0.000E+00 0.441E+00     0.437   279.790     0.000
FRSE   28 000130005   13    0    1.71823E-03   576.600     0.000     0.000     0.000   117.326    91.351   161.622   165.084   311.528   200.939    10.047     2.347     0.000     0.000  1084.046  2023.512   170.191   165.808     0.000     0.216   163.053   335.805    85.291    26.316    28.503    24.129    24.883    15.425     0.031     0.054     0.000     0.000     0.000     0.000     0.000     0.000     0.000     0.000     0.000     0.000     0.019     1.705    -1.343     0.004     0.291    -0.085    -0.015     0.000     0.000     0.000     0.606     0.074     0.049     0.004     0.000     3.242     0.086     0.048     0.000     0.000     0.000     0.000     0.000     0.000     0.000     0.000 .00000E+00 .00000E+00 0.390E-04 0.444E+04 0.000E+00 0.000E+00 0.000E+00 0.000E+00 0.000E+00 0.269E-03     6.728     0.216     0.000
FRSE   29 000130006   13    0    1.41042E-03   576.600     0.000     0.000     0.000   117.326    91.341   161.584   165.014   307.793   198.433     9.922     2.347     0.000     0.000  1082.610  2023.208   170.135   169.553     0.000     3.257   160.976   340.426    85.287    26.316    28.503    24.129    24.883    15.425     0.158     0.375     0.000     0.000     0.000     0.000     0.000     0.000     0.000     0.000     0.000     0.000     0.019     1.700    -1.339     0.004     0.291    -0.076    -0.009     0.000     0.000     0.000     2.475     0.302     0.204     0.004     0.004     3.226     0.085     0.045     0.000     0.000     0.000     0.000     0.000     0.000     0.000     0.000 .00000E+00 .00000E+00 0.388E-04 0.444E+04 0.000E+00 0.000E+00 0.000E+00 0.000E+00 0.000E+00 0.400E-02     6.641     3.257     0.000
FRSE   30 000130007   13    0    1.21546E-02   576.600     0.000     0.000     0.000   117.326    91.275   161.391   164.684   282.214   181.360     9.068     2.347     0.000     0.000  1072.732  2021.155   169.860   169.838     0.000    24.952   146.852   347.689    85.270    26.316    28.503    24.129    24.882    15.425     1.686     2.295     0.000     0.000     0.000     0.000     0.000     0.000     0.000     0.000     0.000     0.000     0.017     1.667    -1.316     0.004     0.285    -0.013     0.087     0.000     0.000     0.000    13.240     1.617     1.204     0.003     0.030     3.114     0.075     0.021     0.000     0.000     0.000     0.000     0.000     0.000     0.000     0.000 .00000E+00 .00000E+00 0.388E-04 0.444E+04 0.000E+00 0.000E+00 0.000E+00 0.000E+00 0.000E+00 0.302E-01     6.048    24.952     0.000
FRSE   31 000130008   13    0    1.20520E-03   576.600     0.000     0.000     0.000   117.326    89.549    92.688    96.082   114.905    72.164     3.608     2.347     0.000     0.000  1024.414  2008.245   164.820   164.820     0.000   189.925    57.389   414.470    84.873    26.316    28.503    24.129    25.519    15.425     2.619     3.440     0.000     0.000     0.000     0.000     0.000     0.000     0.000     0.000     0.000     0.000     0.008     1.103    -0.869     0.002     0.188     0.003     0.135     0.000     0.000     0.000    15.886     1.940     1.530     0.003     0.221     1.340     0.014     0.014     0.000     0.000     0.000     0.000     0.000     0.000     0.000     0.000 .00000E+00 .00000E+00 0.330E-04 0.404E+04 0.000E+00 0.000E+00 0.000E+00 0.000E+00 0.000E+00 0.221E+00     2.336   189.925     0.000
SWCH   32 000130009   13    0    1.71823E-03   576.600     0.000     0.000     0.000   117.326    83.278   161.582   164.787   106.277    68.212     3.411     2.347     0.000     0.000  1033.197  2007.052    91.289    91.289     0.000   281.363    54.588   429.183    77.175    26.316    28.503    24.129    24.435    15.425     0.011     0.022     0.000     0.000     0.000     0.000     0.000     0.000     0.000     0.000     0.000     0.000     4.418     1.881    -0.949     1.173     0.323     1.214     1.046     0.000     0.000     0.000     0.170     0.022     0.012     0.061     1.245     2.254     0.013     0.046     0.000     0.000     0.000     0.000     0.000     0.000     0.000     0.000 .00000E+00 .00000E+00 0.857E-05 0.444E+04 0.000E+00 0.000E+00 0.000E+00 0.000E+00 0.000E+00 0.125E+01     1.943   281.363     0.000
SWCH   33 000130010   13    0    1.30781E-03   576.600     0.000     0.000     0.000   117.326    81.239    92.848    96.191    24.350    13.630     0.681     2.347     0.000     0.000  1004.740  2001.101   182.484   182.484     0.000   273.528     3.265   459.546    86.242    26.316    28.503    24.129    25.250    15.425     0.043     0.074     0.000     0.000     0.000     0.000     0.000     0.000     0.000     0.000     0.000     0.000     4.491     1.347    -0.490     1.211     0.231     1.194     0.972     0.000     0.000     0.000     0.695     0.089     0.048     0.173     1.562     0.412     0.000     0.077     0.000     0.000     0.000     0.000     0.000     0.000     0.000     0.000 .00000E+00 .00000E+00 0.891E-05 0.404E+04 0.000E+00 0.000E+00 0.000E+00 0.000E+00 0.000E+00 0.156E+01     0.270   273.528     0.000
FRSE   34 000130011   13    0    1.10261E-03   576.600     0.000     0.000     0.000   117.326    91.396   161.668   165.210   412.012   265.633    13.282     2.347     0.000     0.000  1123.212  2031.428    69.067    68.031     0.000     0.554   217.771   295.382    73.819    26.316    28.503    24.129    24.887    15.425     0.000     0.114     0.000     0.000     0.000     0.000     0.000     0.000     0.000     0.000     0.000     0.000     0.016     1.706    -1.345     0.004     0.291    -0.171    -0.082     0.000     0.000     0.000     0.000     0.000     0.000     0.001     0.001     2.991     0.105     0.020     0.000     0.000     0.000     0.000     0.000     0.000     0.000     0.000 .00000E+00 .00000E+00 0.951E-05 0.444E+04 0.000E+00 0.000E+00 0.000E+00 0.000E+00 0.000E+00 0.506E-03     9.025     0.554     0.000
FRSE   35 000130012   13    0    1.37040E-01   576.600     0.000     0.000     0.000   117.326    89.834   160.743   164.685    43.663    25.609     1.280     2.347     0.000     0.000  1007.287  2002.753    68.367    68.367     0.000   353.543    19.457   442.125    73.675    26.316    28.503    24.129    24.875    15.425     2.743     9.624     0.000     0.000     0.000     0.000     0.000     0.000     0.000     0.000     0.000     0.000     0.035     1.669    -1.281     0.004     0.285     0.220     0.285     0.000     0.000     0.000    13.049     1.590     1.228     0.002     0.473     1.371     0.004     0.007     0.000     0.000     0.000     0.000     0.000     0.000     0.000     0.000 .00000E+00 .00000E+00 0.878E-05 0.444E+04 0.000E+00 0.000E+00 0.000E+00 0.000E+00 0.000E+00 0.473E+00     0.758   353.543     0.000
FRSE   36 000130013   13    0    1.20520E-03   576.600     0.000     0.000     0.000   117.326    90.092    92.968    96.131   318.994   206.579    10.329     2.347     0.000     0.000  1086.731  2024.315   165.595   149.803     0.000     0.016   168.153   324.946    84.923    26.316    28.503    24.129    25.523    15.425     0.023     0.104     0.000     0.000     0.000     0.000     0.000     0.000     0.000     0.000     0.000     0.000     0.009     1.152    -0.914     0.002     0.197    -0.292    -0.193     0.000     0.000     0.000     0.514     0.063     0.044     0.003     0.000     1.803     0.052     0.037     0.000     0.000     0.000     0.000     0.000     0.000     0.000     0.000 .00000E+00 .00000E+00 0.350E-04 0.404E+04 0.000E+00 0.000E+00 0.000E+00 0.000E+00 0.000E+00 0.187E-04     6.973     0.016     0.000
FRSE   37 000130014   13    0    1.10261E-03   576.600     0.000     0.000     0.000   117.326    90.088    92.942    96.081   311.218   201.392    10.070     2.347     0.000     0.000  1083.738  2023.690   165.521   165.064     0.000     6.226   163.865   341.947    84.918    26.316    28.503    24.129    25.523    15.425     0.354     0.612     0.000     0.000     0.000     0.000     0.000     0.000     0.000     0.000     0.000     0.000     0.008     1.140    -0.905     0.002     0.195    -0.270    -0.172     0.000     0.000     0.000     4.965     0.606     0.439     0.003     0.006     1.767     0.050     0.033     0.000     0.000     0.000     0.000     0.000     0.000     0.000     0.000 .00000E+00 .00000E+00 0.335E-04 0.404E+04 0.000E+00 0.000E+00 0.000E+00 0.000E+00 0.000E+00 0.574E-02     6.793     6.226     0.000
FRSE   38 000130015   13    0    1.20910E+00   576.600     0.000     0.000     0.000   117.326    87.350    91.229    96.084     6.226     2.929     0.146     2.347     0.000     0.000   877.230  2000.241   161.738   161.738     0.000   301.345     0.000   463.141    84.603    26.316    28.503    24.129    25.505    15.425    24.732    15.862     0.000     0.000     0.000     0.000     0.000     0.000     0.000     0.000     0.000     0.000     0.006     1.090    -0.814     0.001     0.186     0.184     0.295     0.000     0.000     0.000    31.764     3.878     3.135     0.004     0.420     0.120     0.000     0.007     0.000     0.000     0.000     0.000     0.000     0.000     0.000     0.000 .00000E+00 .00000E+00 0.241E-04 0.404E+04 0.000E+00 0.000E+00 0.000E+00 0.000E+00 0.000E+00 0.420E+00     0.058   301.345     0.000
FRSD   39 000130016   13    0    1.10261E-03   576.600     0.000     0.000     0.000   117.326    83.068   161.193   164.780    28.688    15.813     0.791     2.347     0.000     0.000  1005.240  2001.317   138.175   138.175     0.000   309.069     8.425   455.995    82.484    26.316    28.503    24.129    24.454    15.425     0.000     0.023     0.000     0.000     0.000     0.000     0.000     0.000     0.000     0.000     0.000     0.000     0.526     1.702    -1.232     0.376     0.291     0.633     0.601     0.000     0.000     0.000     0.000     0.000     0.000     0.026     0.454     0.363     0.000     0.050     0.000     0.000     0.000     0.000     0.000     0.000     0.000     0.000 .00000E+00 .00000E+00 0.145E-04 0.444E+04 0.000E+00 0.000E+00 0.000E+00 0.000E+00 0.000E+00 0.454E+00     0.326   309.069     0.000
BARR   40 000130017   13    0    1.10261E-03   576.600     0.000     0.000     0.000   117.326    91.459   161.277   164.827   138.744    85.097     4.255     2.347     0.000     0.000  1032.225  2009.372   337.208   335.594     0.000     2.150    65.395   405.757    94.358    26.316    28.503    24.129    24.917    15.425     0.882     0.859     0.000     0.000     0.000     0.000     0.000     0.000     0.000     0.000     0.000     0.000     0.000     1.657    -1.329     0.000     0.283     0.118     0.203     0.000     0.000     0.000     7.019     0.856     0.668     0.012     0.006     4.182     0.041     0.039     0.000     0.000     0.000     0.000     0.000     0.000     0.000     0.000 .00000E+00 .00000E+00 0.173E-02 0.444E+04 0.000E+00 0.000E+00 0.000E+00 0.000E+00 0.000E+00 0.622E-02     2.618     2.150     0.000
BARR   41 000130018   13    0    1.92342E-03   576.600     0.000     0.000     0.000   117.326    91.437   161.222   164.732   133.489    81.630     4.081     2.347     0.000     0.000  1030.879  2008.969   337.156   336.819     0.000     6.713    62.590   408.625    94.356    26.316    28.503    24.129    24.917    15.425     2.749     1.817     0.000     0.000     0.000     0.000     0.000     0.000     0.000     0.000     0.000     0.000     0.000     1.639    -1.315     0.000     0.280     0.146     0.259     0.000     0.000     0.000    10.690     1.303     1.056     0.010     0.019     4.127     0.039     0.022     0.000     0.000     0.000     0.000     0.000     0.000     0.000     0.000 .00000E+00 .00000E+00 0.152E-02 0.444E+04 0.000E+00 0.000E+00 0.000E+00 0.000E+00 0.000E+00 0.194E-01     2.502     6.713     0.000
BARR   42 000130019   13    0    1.10261E-03   576.600     0.000     0.000     0.000   117.326    88.956    92.136    96.078    42.620    21.849     1.092     2.347     0.000     0.000  1006.295  2002.106   404.571   404.569     0.000    28.588    13.874   447.576    96.527    26.316    28.503    24.129    25.529    15.425     7.218     4.500     0.000     0.000     0.000     0.000     0.000     0.000     0.000     0.000     0.000     0.000     0.000     1.073    -0.857     0.000     0.183     0.134     0.285     0.000     0.000     0.000    17.167     2.093     1.752     0.021     0.164     3.038     0.005     0.017     0.000     0.000     0.000     0.000     0.000     0.000     0.000     0.000 .00000E+00 .00000E+00 0.554E+00 0.404E+04 0.000E+00 0.341E+04 0.121E+06 0.000E+00 0.000E+00 0.164E+00     0.544    28.588     0.000
FRSE    1 000010001    1    0    2.16673E+00   144.700     0.000     0.000     0.000   106.954    68.615    80.215    47.493     3.828     6.835     0.342     2.139     0.000     0.000   963.488  2000.686    42.249    42.249     0.000    88.424     0.000   130.850    82.144    26.895    29.579    24.211    25.636    16.480     5.806     1.076     0.000     0.000     0.000     0.000     0.000     0.000     0.000     0.000     0.000     0.000     0.005     0.889    -0.745     0.001     0.152    -0.603     0.036     0.000     5.387     1.204     6.811     0.832     0.669     0.000     0.121     0.119     0.000     0.001     0.000     0.000     0.034     0.502     0.000     2.362     5.000     0.019 .00000E+00 .00000E+00 0.126E-05 0.404E+04 0.000E+00 0.000E+00 0.000E+00 0.000E+00 0.000E+00 0.121E+00     0.176    88.424     0.000
FRSE    2 000020001    2    0    2.10260E-03   144.700     0.000     0.000     0.000   106.961    60.433    82.118    55.707    82.438   188.788     9.439     2.139     0.000     0.000  1080.417  2026.454    42.256    58.050     0.000     0.011   183.507   248.873    82.644    26.895    29.579    24.211    25.708    16.480     0.006     0.044     0.000     0.000     0.000     0.000     0.000     0.000     0.000     0.000     0.000     0.000     0.006     0.945    -0.828     0.001     0.161    -0.350    -0.225     0.000     1.127     0.362     0.149     0.018     0.013     0.000     0.000     0.320     0.050     0.014     0.000     0.000     0.034    13.754     0.000     0.714     3.229     0.006 .00000E+00 .00000E+00 0.194E-05 0.404E+04 0.000E+00 0.000E+00 0.000E+00 0.000E+00 0.000E+00 0.307E-05     7.304     0.011     0.000
FRSE    3 000020002    2    0    2.30781E-03   144.700     0.000     0.000     0.000   106.961    60.403    82.117    55.736    80.849   185.146     9.257     2.139     0.000     0.000  1078.219  2025.937    42.249    42.825     0.000     3.069   179.924   232.975    82.644    26.895    29.579    24.211    25.709    16.480     0.137     0.273     0.000     0.000     0.000     0.000     0.000     0.000     0.000     0.000     0.000     0.000     0.005     0.936    -0.820     0.001     0.160    -0.342    -0.200     0.000     1.122     0.360     1.461     0.178     0.128     0.000     0.002     0.314     0.048     0.008     0.000     0.000     0.034    13.776     0.000     0.711     3.223     0.006 .00000E+00 .00000E+00 0.169E-05 0.404E+04 0.000E+00 0.000E+00 0.000E+00 0.000E+00 0.000E+00 0.212E-02     7.157     3.069     0.000
FRSE    4 000020003    2    0    2.37337E+00   144.700     0.000     0.000     0.000   106.961    68.620    80.214    47.489     3.889     6.968     0.348     2.139     0.000     0.000   967.635  2000.700    42.249    42.249     0.000    88.354     0.000   130.784    82.143    26.895    29.579    24.211    25.636    16.480     6.328     5.243     0.000     0.000     0.000     0.000     0.000     0.000     0.000     0.000     0.000     0.000     0.005     0.888    -0.745     0.001     0.152    -0.602     0.035     0.000     5.355     1.203     6.850     0.837     0.673     0.000     0.121     0.122     0.000     0.001     0.000     0.000     0.034     0.519     0.000     2.359     5.000     0.019 .00000E+00 .00000E+00 0.126E-05 0.404E+04 0.000E+00 0.000E+00 0.000E+00 0.000E+00 0.000E+00 0.121E+00     0.180    88.354     0.000
FRSE    5 000030001    3    0    2.10261E-03   144.700     0.000     0.000     0.000   106.925    60.410    82.124    55.724    82.441   188.792     9.440     2.139     0.000     0.000  1080.419  2026.458    42.257    58.052     0.000     0.011   183.510   248.876    82.645    26.895    29.579    24.211    25.708    16.480     0.006     0.044     0.000     0.000     0.000     0.000     0.000     0.000     0.000     0.000     0.000     0.000     0.006     0.945    -0.828     0.001     0.161    -0.350    -0.225     0.000     1.127     0.362     0.149     0.018     0.013     0.000     0.000     0.320     0.050     0.014     0.000     0.000     0.034    13.754     0.000     0.714     3.229     0.006 .00000E+00 .00000E+00 0.195E-05 0.404E+04 0.000E+00 0.000E+00 0.000E+00 0.000E+00 0.000E+00 0.307E-05     7.303     0.011     0.000
FRSE    6 000030002    3    0    2.10261E-03   144.700     0.000     0.000     0.000   106.925    60.383    82.121    55.752    80.430   184.165     9.208     2.139     0.000     0.000  1077.606  2025.789    42.249    42.706     0.000     3.894   178.956   232.674    82.645    26.895    29.579    24.211    25.709    16.480     0.163     0.162     0.000     0.000     0.000     0.000     0.000     0.000     0.000     0.000     0.000     0.000     0.005     0.935    -0.819     0.001     0.160    -0.341    -0.196     0.000     1.122     0.361     1.639     0.200     0.144     0.000     0.003     0.313     0.048     0.008     0.000     0.000     0.034    13.772     0.000     0.711     3.223     0.006 .00000E+00 .00000E+00 0.170E-05 0.404E+04 0.000E+00 0.000E+00 0.000E+00 0.000E+00 0.000E+00 0.269E-02     7.118     3.894     0.000
FRSE    7 000030003    3    0    2.12364E+00   144.700     0.000     0.000     0.000   106.925    68.597    80.215    47.507     2.504     4.164     0.208     2.139     0.000     0.000   888.491  2000.371    42.250    42.250     0.000    89.925     0.000   132.268    82.144    26.895    29.579    24.211    25.636    16.480     9.266     9.265     0.000     0.000     0.000     0.000     0.000     0.000     0.000     0.000     0.000     0.000     0.004     0.888    -0.738     0.001     0.152    -0.597     0.040     0.000     5.803     1.218     7.094     0.866     0.701     0.000     0.123     0.065     0.000     0.001     0.000     0.000     0.034     0.304     0.000     2.392     5.000     0.019 .00000E+00 .00000E+00 0.122E-05 0.404E+04 0.000E+00 0.000E+00 0.000E+00 0.000E+00 0.000E+00 0.123E+00     0.093    89.925     0.000
FRSD    8 000030004    3    0    2.28216E-01   144.700     0.000     0.000     0.000   106.925    56.595    83.221    58.851     1.689     2.295     0.115     2.139     0.000     0.000   801.905  2000.150    56.651    56.651     0.000    75.095     0.000   131.780    87.978    26.895    29.579    24.211    25.471    16.480     0.204     0.171     0.000     0.000     0.000     0.000     0.000     0.000     0.000     0.000     0.000     0.000     0.221     0.934    -0.702     0.191     0.160    -0.170     0.244     0.000     3.556     0.888     0.800     0.105     0.087     0.003     0.095     0.010     0.000     0.009     0.000     0.000     0.087     3.859     0.000     1.450     3.206     0.002 .00000E+00 .00000E+00 0.175E-05 0.404E+04 0.000E+00 0.000E+00 0.000E+00 0.000E+00 0.000E+00 0.945E-01     0.034    75.095     0.000
FRSE    9 000040001    4    0    2.10260E-03   144.700     0.000     0.000     0.000   106.906    60.369    82.125    55.763    80.362   184.003     9.200     2.138     0.000     0.000  1077.509  2025.760    42.249    42.691     0.000     4.031   178.796   232.629    82.646    26.895    29.579    24.211    25.709    16.480     0.171     0.123     0.000     0.000     0.000     0.000     0.000     0.000     0.000     0.000     0.000     0.000     0.005     0.935    -0.819     0.001     0.160    -0.340    -0.195     0.000     1.122     0.361     1.698     0.207     0.150     0.000     0.003     0.313     0.048     0.008     0.000     0.000     0.034    13.774     0.000     0.711     3.223     0.006 .00000E+00 .00000E+00 0.171E-05 0.404E+04 0.000E+00 0.000E+00 0.000E+00 0.000E+00 0.000E+00 0.279E-02     7.111     4.031     0.000
FRSE   10 000040002    4    0    2.10353E+00   144.700     0.000     0.000     0.000   106.906    68.584    80.219    47.518     2.861     4.773     0.239     2.138     0.000     0.000   902.574  2000.431    42.250    42.250     0.000    89.519     0.000   131.876    82.145    26.895    29.579    24.211    25.636    16.480     6.541     6.684     0.000     0.000     0.000     0.000     0.000     0.000     0.000     0.000     0.000     0.000     0.005     0.890    -0.739     0.001     0.152    -0.600     0.041     0.000     5.826     1.219     7.026     0.858     0.691     0.000     0.120     0.077     0.000     0.001     0.000     0.000     0.034     0.297     0.000     2.393     5.000     0.019 .00000E+00 .00000E+00 0.123E-05 0.404E+04 0.000E+00 0.000E+00 0.000E+00 0.000E+00 0.000E+00 0.120E+00     0.108    89.519     0.000
FRSE   11 000050001    5    0    2.10260E-03   144.700     0.000     0.000     0.000   106.937    60.417    82.122    55.719    82.440   188.791     9.440     2.139     0.000     0.000  1080.427  2026.457    42.256    58.051     0.000     0.011   183.509   248.875    82.645    26.895    29.579    24.211    25.708    16.480     0.006     0.044     0.000     0.000     0.000     0.000     0.000     0.000     0.000     0.000     0.000     0.000     0.006     0.945    -0.828     0.001     0.161    -0.350    -0.225     0.000     1.127     0.362     0.149     0.018     0.013     0.000     0.000     0.320     0.050     0.014     0.000     0.000     0.034    13.754     0.000     0.714     3.229     0.006 .00000E+00 .00000E+00 0.195E-05 0.404E+04 0.000E+00 0.000E+00 0.000E+00 0.000E+00 0.000E+00 0.307E-05     7.303     0.011     0.000
FRSE   12 000050002    5    0    2.10260E-03   144.700     0.000     0.000     0.000   106.937    60.401    82.122    55.735    81.680   187.049     9.352     2.139     0.000     0.000  1079.395  2026.202    42.253    43.577     0.000     1.587   181.795   234.193    82.645    26.895    29.579    24.211    25.709    16.480     0.067     0.105     0.000     0.000     0.000     0.000     0.000     0.000     0.000     0.000     0.000     0.000     0.005     0.940    -0.824     0.001     0.161    -0.346    -0.212     0.000     1.124     0.361     0.819     0.100     0.071     0.000     0.001     0.317     0.049     0.010     0.000     0.000     0.034    13.767     0.000     0.712     3.226     0.006 .00000E+00 .00000E+00 0.170E-05 0.404E+04 0.000E+00 0.000E+00 0.000E+00 0.000E+00 0.000E+00 0.114E-02     7.234     1.587     0.000
FRSE   13 000050003    5    0    2.11348E+00   144.700     0.000     0.000     0.000   106.937    68.604    80.213    47.501     2.569     4.272     0.214     2.139     0.000     0.000   892.025  2000.386    42.250    42.250     0.000    89.850     0.000   132.195    82.144    26.895    29.579    24.211    25.636    16.480     8.311     8.394     0.000     0.000     0.000     0.000     0.000     0.000     0.000     0.000     0.000     0.000     0.004     0.889    -0.738     0.001     0.152    -0.598     0.041     0.000     5.806     1.218     7.093     0.866     0.700     0.000     0.122     0.067     0.000     0.001     0.000     0.000     0.034     0.303     0.000     2.392     5.000     0.019 .00000E+00 .00000E+00 0.122E-05 0.404E+04 0.000E+00 0.000E+00 0.000E+00 0.000E+00 0.000E+00 0.122E+00     0.096    89.850     0.000
FRSD   14 000050004    5    0    2.42272E-01   144.700     0.000     0.000     0.000   106.937    56.603    83.219    58.845     1.689     2.295     0.115     2.139     0.000     0.000   801.922  2000.150    56.651    56.651     0.000    75.094     0.000   131.778    87.977    26.895    29.579    24.211    25.471    16.480     0.214     0.171     0.000     0.000     0.000     0.000     0.000     0.000     0.000     0.000     0.000     0.000     0.221     0.933    -0.702     0.191     0.160    -0.170     0.245     0.000     3.555     0.888     0.831     0.109     0.090     0.003     0.094     0.010     0.000     0.009     0.000     0.000     0.087     3.862     0.000     1.449     3.206     0.002 .00000E+00 .00000E+00 0.175E-05 0.404E+04 0.000E+00 0.000E+00 0.000E+00 0.000E+00 0.000E+00 0.945E-01     0.034    75.094     0.000
FRSE   15 000060001    6    0    2.12004E+00   144.700     0.000     0.000     0.000   106.904    68.582    80.219    47.519     2.699     4.489     0.224     2.138     0.000     0.000   897.114  2000.401    42.250    42.250     0.000    89.704     0.000   132.055    82.145    26.895    29.579    24.211    25.636    16.480     7.255     7.289     0.000     0.000     0.000     0.000     0.000     0.000     0.000     0.000     0.000     0.000     0.005     0.890    -0.739     0.001     0.152    -0.599     0.041     0.000     5.816     1.219     7.068     0.863     0.696     0.000     0.121     0.071     0.000     0.001     0.000     0.000     0.034     0.300     0.000     2.393     5.000     0.019 .00000E+00 .00000E+00 0.123E-05 0.404E+04 0.000E+00 0.000E+00 0.000E+00 0.000E+00 0.000E+00 0.121E+00     0.100    89.704     0.000
FRSE   16 000070001    7    0    2.11502E+00   144.700     0.000     0.000     0.000   106.829    68.532    80.231    47.559     2.517     4.186     0.209     2.137     0.000     0.000   888.960  2000.374    42.252    42.252     0.000    89.918     0.000   132.264    82.148    26.895    29.579    24.211    25.636    16.480     9.022     9.100     0.000     0.000     0.000     0.000     0.000     0.000     0.000     0.000     0.000     0.000     0.004     0.888    -0.738     0.001     0.152    -0.598     0.040     0.000     5.805     1.218     7.095     0.866     0.701     0.000     0.123     0.065     0.000     0.001     0.000     0.000     0.034     0.303     0.000     2.392     5.000     0.019 .00000E+00 .00000E+00 0.124E-05 0.404E+04 0.000E+00 0.000E+00 0.000E+00 0.000E+00 0.000E+00 0.123E+00     0.094    89.918     0.000
FRSE   17 000080001    8    0    2.16827E-01   144.700     0.000     0.000     0.000   106.752    68.481    80.244    47.600     2.622     4.359     0.218     2.135     0.000     0.000   894.385  2000.388    42.254    42.254     0.000    89.805     0.000   132.156    82.152    26.895    29.579    24.211    25.636    16.480     6.096     7.738     0.000     0.000     0.000     0.000     0.000     0.000     0.000     0.000     0.000     0.000     0.005     0.891    -0.740     0.001     0.152    -0.600     0.041     0.000     5.817     1.219     6.997     0.855     0.687     0.000     0.122     0.068     0.000     0.001     0.000     0.000     0.034     0.300     0.000     2.393     5.000     0.019 .00000E+00 .00000E+00 0.126E-05 0.404E+04 0.000E+00 0.000E+00 0.000E+00 0.000E+00 0.000E+00 0.122E+00     0.097    89.805     0.000
FRSE   18 000090001    9    0    2.20521E-03   144.700     0.000     0.000     0.000   106.842    60.352    82.138    55.772    82.397   188.689     9.434     2.137     0.000     0.000  1080.372  2026.441    42.259    48.423     0.000     0.114   183.405   239.240    82.649    26.895    29.579    24.211    25.709    16.480     0.014     0.074     0.000     0.000     0.000     0.000     0.000     0.000     0.000     0.000     0.000     0.000     0.006     0.944    -0.827     0.001     0.161    -0.350    -0.223     0.000     1.126     0.362     0.278     0.034     0.024     0.000     0.000     0.319     0.050     0.012     0.000     0.000     0.034    13.759     0.000     0.713     3.228     0.006 .00000E+00 .00000E+00 0.174E-05 0.404E+04 0.000E+00 0.000E+00 0.000E+00 0.000E+00 0.000E+00 0.813E-04     7.298     0.114     0.000
FRSE   19 000090002    9    0    2.32833E-01   144.700     0.000     0.000     0.000   106.842    68.540    80.234    47.552     3.996     7.197     0.360     2.137     0.000     0.000   974.454  2000.734    42.252    42.252     0.000    88.243     0.000   130.683    82.149    26.895    29.579    24.211    25.637    16.480     4.659     1.149     0.000     0.000     0.000     0.000     0.000     0.000     0.000     0.000     0.000     0.000     0.006     0.890    -0.747     0.001     0.152    -0.605     0.035     0.000     5.318     1.201     6.651     0.812     0.651     0.000     0.121     0.126     0.000     0.002     0.000     0.000     0.034     0.541     0.000     2.356     5.000     0.019 .00000E+00 .00000E+00 0.129E-05 0.404E+04 0.000E+00 0.000E+00 0.000E+00 0.000E+00 0.000E+00 0.121E+00     0.188    88.243     0.000
FRSE   20 000100001   10    0    2.10260E-03   144.700     0.000     0.000     0.000   106.859    60.368    82.134    55.758    82.446   188.801     9.440     2.137     0.000     0.000  1080.438  2026.458    42.258    58.054     0.000     0.011   183.515   248.883    82.648    26.895    29.579    24.211    25.709    16.480     0.006     0.044     0.000     0.000     0.000     0.000     0.000     0.000     0.000     0.000     0.000     0.000     0.006     0.945    -0.828     0.001     0.161    -0.350    -0.225     0.000     1.127     0.362     0.149     0.018     0.013     0.000     0.000     0.320     0.050     0.014     0.000     0.000     0.034    13.754     0.000     0.714     3.229     0.006 .00000E+00 .00000E+00 0.197E-05 0.404E+04 0.000E+00 0.000E+00 0.000E+00 0.000E+00 0.000E+00 0.307E-05     7.303     0.011     0.000
FRSE   21 000100002   10    0    2.90393E-01   144.700     0.000     0.000     0.000   106.859    68.551    80.229    47.543     3.574     6.287     0.314     2.137     0.000     0.000   946.445  2000.613    42.252    42.252     0.000    88.718     0.000   131.127    82.148    26.895    29.579    24.211    25.636    16.480     5.621     4.004     0.000     0.000     0.000     0.000     0.000     0.000     0.000     0.000     0.000     0.000     0.006     0.890    -0.744     0.001     0.152    -0.603     0.037     0.000     5.508     1.208     6.827     0.834     0.670     0.000     0.121     0.108     0.000     0.001     0.000     0.000     0.034     0.441     0.000     2.371     5.000     0.019 .00000E+00 .00000E+00 0.127E-05 0.404E+04 0.000E+00 0.000E+00 0.000E+00 0.000E+00 0.000E+00 0.121E+00     0.157    88.718     0.000
FRSE   22 000110001   11    0    2.22470E-01   144.700     0.000     0.000     0.000   106.775    68.496    80.240    47.587     2.540     4.223     0.211     2.136     0.000     0.000   890.036  2000.375    42.253    42.253     0.000    89.896     0.000   132.244    82.151    26.895    29.579    24.211    25.636    16.480     7.178     8.802     0.000     0.000     0.000     0.000     0.000     0.000     0.000     0.000     0.000     0.000     0.005     0.890    -0.739     0.001     0.152    -0.599     0.041     0.000     5.812     1.218     7.064     0.863     0.695     0.000     0.123     0.066     0.000     0.001     0.000     0.000     0.034     0.301     0.000     2.393     5.000     0.019 .00000E+00 .00000E+00 0.125E-05 0.404E+04 0.000E+00 0.000E+00 0.000E+00 0.000E+00 0.000E+00 0.123E+00     0.094    89.896     0.000
FRSE   23 000120001   12    0    2.69667E-01   144.700     0.000     0.000     0.000   106.772    68.494    80.241    47.589     2.618     4.354     0.218     2.135     0.000     0.000   894.265  2000.388    42.254    42.254     0.000    89.807     0.000   132.157    82.151    26.895    29.579    24.211    25.636    16.480     7.263     7.777     0.000     0.000     0.000     0.000     0.000     0.000     0.000     0.000     0.000     0.000     0.005     0.890    -0.739     0.001     0.152    -0.599     0.041     0.000     5.811     1.218     7.068     0.863     0.696     0.000     0.122     0.068     0.000     0.001     0.000     0.000     0.034     0.301     0.000     2.393     5.000     0.019 .00000E+00 .00000E+00 0.126E-05 0.404E+04 0.000E+00 0.000E+00 0.000E+00 0.000E+00 0.000E+00 0.122E+00     0.097    89.807     0.000
FRSE   24 000130001   13    0    2.41042E-03   144.700     0.000     0.000     0.000   106.737    70.175   148.236   114.543    81.931   185.345     9.267     2.135     0.000     0.000  1078.692  2025.714    43.137    59.180     0.000     0.008   179.398   245.671    83.940    26.895    29.579    24.211    24.983    16.480     0.004     0.012     0.000     0.000     0.000     0.000     0.000     0.000     0.000     0.000     0.000     0.000     0.013     1.460    -1.217     0.003     0.250    -0.576    -0.191     0.000     3.156     0.900     0.129     0.016     0.010     0.000     0.000     0.657     0.089     0.017     0.000     0.000     0.034     4.894     0.000     1.758     4.999     0.014 .00000E+00 .00000E+00 0.232E-05 0.444E+04 0.000E+00 0.000E+00 0.000E+00 0.000E+00 0.000E+00 0.307E-05     7.085     0.008     0.000
FRSE   25 000130002   13    0    2.20520E-03   144.700     0.000     0.000     0.000   106.737    70.177   148.227   114.540    81.253   183.859     9.193     2.135     0.000     0.000  1077.793  2025.504    43.133    44.247     0.000     1.357   177.943   230.573    83.939    26.895    29.579    24.211    24.983    16.480     0.056     0.107     0.000     0.000     0.000     0.000     0.000     0.000     0.000     0.000     0.000     0.000     0.013     1.457    -1.215     0.003     0.249    -0.573    -0.183     0.000     3.163     0.902     0.693     0.085     0.057     0.000     0.001     0.655     0.088     0.012     0.000     0.000     0.034     4.867     0.000     1.761     4.999     0.014 .00000E+00 .00000E+00 0.203E-05 0.444E+04 0.000E+00 0.000E+00 0.000E+00 0.000E+00 0.000E+00 0.135E-02     7.026     1.357     0.000
FRSE   26 000130003   13    0    2.21546E-02   144.700     0.000     0.000     0.000   106.737    70.219   148.143   114.471    51.597   115.274     5.764     2.135     0.000     0.000  1042.039  2015.656    43.104    43.104     0.000    38.702   110.581   196.683    83.931    26.895    29.579    24.211    24.972    16.480     0.702     1.162     0.000     0.000     0.000     0.000     0.000     0.000     0.000     0.000     0.000     0.000     0.013     1.434    -1.191     0.002     0.245    -0.601    -0.079     0.000     4.200     1.097     4.243     0.518     0.383     0.000     0.041     0.620     0.051     0.005     0.000     0.000     0.034     1.975     0.000     2.144     5.000     0.017 .00000E+00 .00000E+00 0.202E-05 0.444E+04 0.000E+00 0.000E+00 0.000E+00 0.000E+00 0.000E+00 0.407E-01     4.296    38.702     0.000
FRSE   27 000130004   13    0    2.30781E-03   144.700     0.000     0.000     0.000   106.737    68.465    80.257    47.617     8.123    16.269     0.813     2.135     0.000     0.000  1002.413  2001.907    42.254    42.254     0.000    83.592    14.237   140.592    82.154    26.895    29.579    24.211    25.640    16.480     1.649     1.109     0.000     0.000     0.000     0.000     0.000     0.000     0.000     0.000     0.000     0.000     0.009     0.897    -0.766     0.002     0.153    -0.574     0.014     0.000     3.825     1.050     5.436     0.664     0.523     0.000     0.111     0.233     0.002     0.003     0.000     0.000     0.034     2.666     0.000     2.046     5.000     0.017 .00000E+00 .00000E+00 0.150E-05 0.404E+04 0.000E+00 0.000E+00 0.000E+00 0.000E+00 0.000E+00 0.111E+00     0.509    83.592     0.000
FRSE   28 000130005   13    0    2.71823E-03   144.700     0.000     0.000     0.000   106.737    70.175   148.235   114.542    81.858   185.187     9.259     2.135     0.000     0.000  1078.596  2025.692    43.137    47.520     0.000     0.151   179.243   233.994    83.940    26.895    29.579    24.211    24.983    16.480     0.012     0.045     0.000     0.000     0.000     0.000     0.000     0.000     0.000     0.000     0.000     0.000     0.013     1.460    -1.217     0.003     0.249    -0.575    -0.190     0.000     3.156     0.900     0.219     0.027     0.018     0.000     0.000     0.657     0.089     0.014     0.000     0.000     0.034     4.894     0.000     1.758     4.999     0.014 .00000E+00 .00000E+00 0.204E-05 0.444E+04 0.000E+00 0.000E+00 0.000E+00 0.000E+00 0.000E+00 0.150E-03     7.079     0.151     0.000
FRSE   29 000130006   13    0    2.41042E-03   144.700     0.000     0.000     0.000   106.737    70.177   148.222   114.538    80.827   182.926     9.146     2.135     0.000     0.000  1077.225  2025.366    43.131    43.714     0.000     2.049   177.029   229.781    83.938    26.895    29.579    24.211    24.983    16.480     0.075     0.035     0.000     0.000     0.000     0.000     0.000     0.000     0.000     0.000     0.000     0.000     0.012     1.456    -1.214     0.003     0.249    -0.573    -0.180     0.000     3.169     0.903     0.863     0.105     0.071     0.000     0.002     0.654     0.087     0.011     0.000     0.000     0.034     4.844     0.000     1.764     4.999     0.014 .00000E+00 .00000E+00 0.203E-05 0.444E+04 0.000E+00 0.000E+00 0.000E+00 0.000E+00 0.000E+00 0.198E-02     6.989     2.049     0.000
FRSE   30 000130007   13    0    2.21546E-02   144.700     0.000     0.000     0.000   106.737    70.189   148.153   114.505    73.972   167.566     8.378     2.135     0.000     0.000  1067.812  2023.156    43.104    43.125     0.000    13.341   161.974   224.817    83.932    26.895    29.579    24.211    24.981    16.480     0.815     0.242     0.000     0.000     0.000     0.000     0.000     0.000     0.000     0.000     0.000     0.000     0.011     1.430    -1.192     0.002     0.244    -0.560    -0.112     0.000     3.274     0.928     4.488     0.548     0.407     0.000     0.012     0.635     0.078     0.005     0.000     0.000     0.034     4.471     0.000     1.811     5.000     0.015 .00000E+00 .00000E+00 0.203E-05 0.444E+04 0.000E+00 0.000E+00 0.000E+00 0.000E+00 0.000E+00 0.125E-01     6.377    13.341     0.000
FRSE   31 000130008   13    0    2.20520E-03   144.700     0.000     0.000     0.000   106.737    64.152    81.214    51.949    30.973    68.437     3.422     2.135     0.000     0.000  1022.022  2009.159    42.254    42.254     0.000    63.771    65.273   173.806    82.412    26.895    29.579    24.211    25.685    16.480     1.223     1.099     0.000     0.000     0.000     0.000     0.000     0.000     0.000     0.000     0.000     0.000     0.005     0.900    -0.786     0.001     0.154    -0.313    -0.024     0.000     1.577     0.497     4.779     0.584     0.460     0.000     0.051     0.257     0.015     0.003     0.000     0.000     0.034    11.188     0.000     0.973     4.000     0.008 .00000E+00 .00000E+00 0.173E-05 0.404E+04 0.000E+00 0.000E+00 0.000E+00 0.000E+00 0.000E+00 0.512E-01     2.507    63.771     0.000
SWCH   32 000130009   13    0    2.71823E-03   144.700     0.000     0.000     0.000   106.737    73.896   148.485   109.580    27.989    63.520     3.176     2.135     0.000     0.000  1030.356  2008.048    25.262    25.262     0.000    82.144    61.051   170.637    75.198    26.895    29.579    24.211    24.605    16.480     0.007     0.022     0.000     0.000   115.581     0.000     0.000     0.000     0.000     0.000     0.000     0.000     3.092     1.603    -0.858     0.822     0.275    -0.596     0.469     0.000    38.063     3.380     0.091     0.012     0.007     0.005     0.272     0.653     0.021     0.012     0.000     0.000     0.092     3.116     0.000     2.506     4.920     0.003 .00000E+00 .00000E+00 0.000E+00 0.444E+04 0.000E+00 0.000E+00 0.000E+00 0.000E+00 0.000E+00 0.272E+00     2.180    82.144     0.000
SWCH   33 000130010   13    0    2.30781E-03   144.700     0.000     0.000     0.000   106.737    72.057    80.663    42.754     7.222    14.484     0.724     2.135     0.000     0.000  1005.070  2001.452    46.171    46.171     0.000    81.600    11.295   139.439    83.779    26.895    29.579    24.211    25.382    16.480     0.024     0.008     0.000     0.000   113.522     0.000     0.000     0.000     0.000     0.000     0.000     0.000     3.104     1.083    -0.443     0.838     0.186    -0.615     0.487     0.000    39.070     3.378     0.272     0.035     0.019     0.014     0.352     0.186     0.001     0.018     0.000     0.000     0.092     3.023     0.000     2.573     4.950     0.003 .00000E+00 .00000E+00 0.000E+00 0.404E+04 0.000E+00 0.000E+00 0.000E+00 0.000E+00 0.000E+00 0.352E+00     0.373    81.600     0.000
FRSE   34 000130011   13    0    2.10261E-03   144.700     0.000     0.000     0.000   106.737    69.566   148.409   115.163   105.008   243.449    12.172     2.135     0.000     0.000  1115.890  2034.170    19.991    21.027     0.000     0.392   236.464   267.313    71.592    26.895    29.579    24.211    25.000    16.480     0.000     0.012     0.000     0.000     0.000     0.000     0.000     0.000     0.000     0.000     0.000     0.000     0.011     1.461    -1.219     0.002     0.250    -0.511    -0.221     0.000     2.460     0.728     0.000     0.000     0.000     0.000     0.000     0.568     0.103     0.006     0.000     0.000     0.034     7.592     0.000     1.427     4.882     0.012 .00000E+00 .00000E+00 0.000E+00 0.444E+04 0.000E+00 0.000E+00 0.000E+00 0.000E+00 0.000E+00 0.280E-03     9.431     0.392     0.000
FRSE   35 000130012   13    0    2.37040E-01   144.700     0.000     0.000     0.000   106.737    70.222   148.140   114.466    12.506    26.255     1.313     2.135     0.000     0.000  1005.994  2003.205    19.967    19.967     0.000   104.307    24.100   149.234    71.545    26.895    29.579    24.211    24.968    16.480     1.585     4.481     0.000     0.000     0.000     0.000     0.000     0.000     0.000     0.000     0.000     0.000     0.021     1.433    -1.161     0.002     0.245    -0.556     0.032     0.000     6.884     1.239     4.925     0.600     0.463     0.000     0.121     0.370     0.006     0.002     0.000     0.000     0.034     0.000     0.000     2.439     5.000     0.020 .00000E+00 .00000E+00 0.000E+00 0.444E+04 0.000E+00 0.000E+00 0.000E+00 0.000E+00 0.000E+00 0.121E+00     0.860   104.307     0.000
FRSE   36 000130013   13    0    2.20520E-03   144.700     0.000     0.000     0.000   106.737    60.289    82.154    55.821    82.455   188.816     9.441     2.135     0.000     0.000  1080.446  2026.454    42.261    58.057     0.000     0.011   183.525   248.896    82.653    26.895    29.579    24.211    25.709    16.480     0.007     0.044     0.000     0.000     0.000     0.000     0.000     0.000     0.000     0.000     0.000     0.000     0.006     0.945    -0.828     0.001     0.161    -0.350    -0.224     0.000     1.127     0.362     0.186     0.023     0.016     0.000     0.000     0.320     0.050     0.014     0.000     0.000     0.034    13.756     0.000     0.713     3.229     0.006 .00000E+00 .00000E+00 0.200E-05 0.404E+04 0.000E+00 0.000E+00 0.000E+00 0.000E+00 0.000E+00 0.307E-05     7.302     0.011     0.000
FRSE   37 000130014   13    0    2.10261E-03   144.700     0.000     0.000     0.000   106.737    60.265    82.151    55.845    80.444   184.188     9.209     2.135     0.000     0.000  1077.611  2025.783    42.254    42.711     0.000     3.894   178.971   232.692    82.652    26.895    29.579    24.211    25.709    16.480     0.163     0.080     0.000     0.000     0.000     0.000     0.000     0.000     0.000     0.000     0.000     0.000     0.005     0.935    -0.819     0.001     0.160    -0.341    -0.196     0.000     1.122     0.361     1.639     0.200     0.144     0.000     0.003     0.313     0.048     0.008     0.000     0.000     0.034    13.772     0.000     0.711     3.223     0.006 .00000E+00 .00000E+00 0.175E-05 0.404E+04 0.000E+00 0.000E+00 0.000E+00 0.000E+00 0.000E+00 0.269E-02     7.117     3.894     0.000
FRSE   38 000130015   13    0    2.20910E+00   144.700     0.000     0.000     0.000   106.737    68.471    80.246    47.608     2.332     3.878     0.194     2.135     0.000     0.000   878.780  2000.348    42.254    42.254     0.000    90.136     0.000   132.477    82.152    26.895    29.579    24.211    25.637    16.480    12.483    11.716     0.000     0.000     0.000     0.000     0.000     0.000     0.000     0.000     0.000     0.000     0.003     0.887    -0.737     0.001     0.151    -0.596     0.039     0.000     5.797     1.218     6.983     0.853     0.692     0.000     0.124     0.060     0.000     0.001     0.000     0.000     0.034     0.306     0.000     2.392     5.000     0.019 .00000E+00 .00000E+00 0.126E-05 0.404E+04 0.000E+00 0.000E+00 0.000E+00 0.000E+00 0.000E+00 0.124E+00     0.087    90.136     0.000
FRSD   39 000130016   13    0    2.10261E-03   144.700     0.000     0.000     0.000   106.737    59.019   150.950   124.740     8.452    17.021     0.851     2.135     0.000     0.000  1004.659  2001.724    36.049    36.049     0.000    91.513    14.616   142.621    81.297    26.895    29.579    24.211    24.616    16.480     0.011     0.014     0.000     0.000     0.000     0.000     0.000     0.000     0.000     0.000     0.000     0.000     0.353     1.476    -1.117     0.252     0.252    -0.188     0.235     0.000     5.949     1.144     0.087     0.011     0.008     0.002     0.103     0.126     0.001     0.011     0.000     0.000     0.087     0.477     0.000     1.904     3.584     0.003 .00000E+00 .00000E+00 0.000E+00 0.444E+04 0.000E+00 0.000E+00 0.000E+00 0.000E+00 0.000E+00 0.103E+00     0.444    91.513     0.000
BARR   40 000130017   13    0    2.10261E-03   144.700     0.000     0.000     0.000   106.737    46.432   153.741   138.251    43.191    85.736     4.287     2.135     0.000     0.000  1032.290  2010.751    80.890    82.579     0.000     1.417    79.249   166.152    94.105    26.895    29.579    24.211    25.144    16.480     0.309     0.198     0.000     0.000     0.000     0.000     0.000     0.000     0.000     0.000     0.000     0.000     0.000     1.459    -1.204     0.000     0.249     0.118     0.120     0.000     0.004     0.001     1.784     0.218     0.169     0.001     0.004     1.089     0.055     0.009     0.000     1.167     0.092     0.000     5.154     0.000     0.000     0.000 .00000E+00 .00000E+00 0.458E+00 0.444E+04 0.000E+00 0.000E+00 0.000E+00 0.000E+00 0.000E+00 0.362E-02     2.907     1.417     0.000
BARR   41 000130018   13    0    2.92342E-03   144.700     0.000     0.000     0.000   106.737    46.432   153.724   138.249    41.590    82.481     4.124     2.135     0.000     0.000  1030.970  2010.308    80.882    81.234     0.000     3.783    76.131   163.933    94.104    26.895    29.579    24.211    25.144    16.480     0.979     0.516     0.000     0.000     0.000     0.000     0.000     0.000     0.000     0.000     0.000     0.000     0.000     1.444    -1.191     0.000     0.247     0.133     0.151     0.000     0.004     0.001     2.564     0.313     0.253     0.001     0.010     1.079     0.052     0.004     0.000     1.167     0.092     0.000     5.154     0.000     0.000     0.000 .00000E+00 .00000E+00 0.440E+00 0.444E+04 0.000E+00 0.000E+00 0.000E+00 0.000E+00 0.000E+00 0.958E-02     2.785     3.783     0.000
BARR   42 000130019   13    0    2.10261E-03   144.700     0.000     0.000     0.000   106.737    43.001    86.112    73.066    17.348    27.951     1.398     2.135     0.000     0.000  1007.629  2002.789    97.291    97.293     0.000    13.085    23.085   134.177    96.311    26.895    29.579    24.211    25.777    16.480     2.508     0.746     0.000     0.000     0.000     0.000     0.000     0.000     0.000     0.000     0.000     0.000     0.000     0.926    -0.776     0.000     0.158     0.098     0.138     0.000     0.003     0.000     3.472     0.423     0.355     0.001     0.072     1.081     0.012     0.003     0.000     5.019     0.092     0.000     5.285     0.000     0.000     0.000 .00000E+00 .00000E+00 0.170E+01 0.404E+04 0.000E+00 0.341E+04 0.121E+06 0.000E+00 0.000E+00 0.717E-01     0.714    13.085     0.000
FRSE    1 000010001    1    0    3.16673E+00    93.800     0.000     0.000     0.000   115.566    83.723    27.838    18.603     0.000     3.230     0.162     2.311     0.000     0.000   964.245  2000.637     0.000     0.000     0.000    38.951     0.000    39.161    66.062    26.877    29.777    23.977    25.002    16.583     0.000     0.000     0.000     0.000     0.000     0.000     0.000     0.000     0.000     0.000     0.000     0.000     0.004     0.697    -0.824     0.001     0.119    -0.444    -0.492     0.000     0.702     0.214     0.000     0.000     0.000     0.000     0.000     0.000     0.000     0.000     0.000     1.097     0.047     3.734     0.000     5.630     5.000     2.594 .00000E+00 .00000E+00 0.239E+01 0.404E+04 0.000E+00 0.000E+00 0.000E+00 0.000E+00 0.000E+00 0.365E-03     0.210    38.951     0.000
FRSE    2 000020001    2    0    3.10260E-03    93.800     0.000     0.000     0.000   115.575    80.010    53.286    69.422     0.000    87.252     4.363     2.312     0.000     0.000  1020.297  2023.040     0.072     0.072     0.000     0.003   140.698   148.549    75.229    26.877    29.777    23.977    25.649    16.583     0.000     0.000     0.000     0.000     0.000     0.000     0.000     0.000     0.000     0.000     0.000     0.000     0.005     0.893    -0.916     0.001     0.153    -0.159    -0.195     0.000     0.890     0.204     0.000     0.000     0.000     0.000     0.000     0.000     0.020     0.000     0.000     0.000     0.047    16.870     0.000     2.262     3.230     1.042 .00000E+00 .00000E+00 0.239E+01 0.404E+04 0.000E+00 0.000E+00 0.000E+00 0.000E+00 0.000E+00 0.000E+00     7.777     0.003     0.000
FRSE    3 000020002    2    0    3.30781E-03    93.800     0.000     0.000     0.000   115.575    79.949    53.186    68.987     0.000    85.571     4.279     2.312     0.000     0.000  1019.226  2022.593     0.069     0.069     0.000     0.555   137.974   146.220    75.207    26.877    29.777    23.977    25.650    16.583     0.000     0.000     0.000     0.000     0.000     0.000     0.000     0.000     0.000     0.000     0.000     0.000     0.004     0.884    -0.908     0.001     0.151    -0.156    -0.175     0.000     0.881     0.202     0.000     0.000     0.000     0.000     0.000     0.000     0.019     0.000     0.000     0.000     0.047    16.950     0.000     2.249     3.224     1.036 .00000E+00 .00000E+00 0.239E+01 0.404E+04 0.000E+00 0.000E+00 0.000E+00 0.000E+00 0.000E+00 0.153E-03     7.622     0.555     0.000
FRSE    4 000020003    2    0    3.37337E+00    93.800     0.000     0.000     0.000   115.575    83.755    27.857    18.652     0.000     3.292     0.165     2.312     0.000     0.000   968.451  2000.649     0.000     0.000     0.000    38.865     0.000    39.080    66.071    26.877    29.777    23.977    25.003    16.583     0.000     0.000     0.000     0.000     0.000     0.000     0.000     0.000     0.000     0.000     0.000     0.000     0.004     0.697    -0.824     0.001     0.119    -0.442    -0.491     0.000     0.701     0.212     0.000     0.000     0.000     0.000     0.000     0.000     0.000     0.000     0.000     1.092     0.047     3.818     0.000     5.618     5.000     2.589 .00000E+00 .00000E+00 0.239E+01 0.404E+04 0.000E+00 0.000E+00 0.000E+00 0.000E+00 0.000E+00 0.364E-03     0.215    38.865     0.000
FRSE    5 000030001    3    0    3.10261E-03    93.800     0.000     0.000     0.000   115.532    79.981    53.317    69.468     0.000    87.254     4.363     2.311     0.000     0.000  1020.300  2023.045     0.073     0.073     0.000     0.003   140.701   148.553    75.238    26.877    29.777    23.977    25.650    16.583     0.000     0.000     0.000     0.000     0.000     0.000     0.000     0.000     0.000     0.000     0.000     0.000     0.005     0.893    -0.916     0.001     0.153    -0.159    -0.195     0.000     0.890     0.204     0.000     0.000     0.000     0.000     0.000     0.000     0.020     0.000     0.000     0.000     0.047    16.868     0.000     2.262     3.230     1.042 .00000E+00 .00000E+00 0.239E+01 0.404E+04 0.000E+00 0.000E+00 0.000E+00 0.000E+00 0.000E+00 0.000E+00     7.777     0.003     0.000
FRSE    6 000030002    3    0    3.10261E-03    93.800     0.000     0.000     0.000   115.532    79.917    53.171    68.891     0.000    85.118     4.256     2.311     0.000     0.000  1018.918  2022.465     0.069     0.069     0.000     0.704   137.239   145.593    75.205    26.877    29.777    23.977    25.650    16.583     0.000     0.000     0.000     0.000     0.000     0.000     0.000     0.000     0.000     0.000     0.000     0.000     0.004     0.883    -0.907     0.001     0.151    -0.156    -0.173     0.000     0.880     0.202     0.000     0.000     0.000     0.000     0.000     0.000     0.019     0.000     0.000     0.000     0.047    16.957     0.000     2.249     3.224     1.036 .00000E+00 .00000E+00 0.239E+01 0.404E+04 0.000E+00 0.000E+00 0.000E+00 0.000E+00 0.000E+00 0.194E-03     7.580     0.704     0.000
FRSE    7 000030003    3    0    3.12364E+00    93.800     0.000     0.000     0.000   115.532    83.279    27.441    17.686     0.000     1.982     0.099     2.311     0.000     0.000   888.063  2000.354     0.000     0.000     0.000    40.326     0.000    40.443    65.876    26.877    29.777    23.977    24.987    16.583     0.000     0.000     0.000     0.000     0.000     0.000     0.000     0.000     0.000     0.000     0.000     0.000     0.003     0.690    -0.816     0.001     0.118    -0.469    -0.499     0.000     0.694     0.235     0.000     0.000     0.000     0.000     0.000     0.000     0.000     0.000     0.000     1.167     0.047     2.779     0.000     5.774     5.000     2.661 .00000E+00 .00000E+00 0.239E+01 0.404E+04 0.000E+00 0.000E+00 0.000E+00 0.000E+00 0.000E+00 0.234E-03     0.117    40.326     0.000
FRSD    8 000030004    3    0    3.28216E-01    93.800     0.000     0.000     0.000   115.532    82.135    41.227    30.129     0.000     1.110     0.055     2.311     0.000     0.000   800.648  2000.156     0.199     0.199     0.000    40.171     0.000    40.420    79.359    26.877    29.777    23.977    25.328    16.583     0.000     0.003     0.000     0.000     0.000     0.000     0.000     0.000     0.000     0.000     0.000     0.000     0.182     0.789    -0.778     0.157     0.135    -0.346    -0.212     0.000     0.933     0.454     0.000     0.000     0.000     0.000     0.001     0.000     0.000     0.000     0.000     0.000     0.120    13.427     0.000     3.502     4.591     0.203 .00000E+00 .00000E+00 0.240E+01 0.404E+04 0.000E+00 0.000E+00 0.000E+00 0.000E+00 0.000E+00 0.149E-02     0.050    40.171     0.000
FRSE    9 000040001    4    0    3.10260E-03    93.800     0.000     0.000     0.000   115.508    79.898    53.184    68.897     0.000    85.044     4.252     2.310     0.000     0.000  1018.872  2022.439     0.069     0.069     0.000     0.729   137.118   145.490    75.209    26.877    29.777    23.977    25.650    16.583     0.000     0.000     0.000     0.000     0.000     0.000     0.000     0.000     0.000     0.000     0.000     0.000     0.004     0.883    -0.906     0.001     0.151    -0.155    -0.172     0.000     0.880     0.202     0.000     0.000     0.000     0.000     0.000     0.000     0.019     0.000     0.000     0.000     0.047    16.961     0.000     2.248     3.224     1.036 .00000E+00 .00000E+00 0.239E+01 0.404E+04 0.000E+00 0.000E+00 0.000E+00 0.000E+00 0.000E+00 0.201E-03     7.573     0.729     0.000
FRSE   10 000040002    4    0    3.10353E+00    93.800     0.000     0.000     0.000   115.508    83.271    27.456    17.701     0.000     2.271     0.114     2.310     0.000     0.000   902.421  2000.410     0.000     0.000     0.000    40.329     0.000    40.463    65.883    26.877    29.777    23.977    24.988    16.583     0.000     0.000     0.000     0.000     0.000     0.000     0.000     0.000     0.000     0.000     0.000     0.000     0.004     0.692    -0.818     0.001     0.118    -0.469    -0.500     0.000     0.697     0.236     0.000     0.000     0.000     0.000     0.000     0.000     0.000     0.000     0.000     1.163     0.047     2.728     0.000     5.781     5.000     2.664 .00000E+00 .00000E+00 0.239E+01 0.404E+04 0.000E+00 0.000E+00 0.000E+00 0.000E+00 0.000E+00 0.256E-03     0.134    40.329     0.000
[...]
FRSE   20 000100001   10    0  4.0.10260E-03  3445.525     0.000     0.000     0.000  1685.336   997.052    86.143    90.439  1439.800  1427.069    71.353    33.707     0.000     0.000  1049.193  2015.359  1009.515  1007.674     0.000     0.104  1324.958  2405.492    83.481    26.585    28.867    24.303    25.752    17.431     0.030     0.346     0.000     0.000     0.000     0.000     0.000     0.000     0.000     0.000     0.000     0.000     0.536    12.820   -11.266     0.145     2.187    -1.396    -1.184     0.000     3.068     0.831     0.702     0.086     0.059     0.021     0.000    10.272     0.269     0.247     0.000     0.000     0.074    34.450     0.000     3.580     3.444     2.506 .00000E+00 .00000E+00 0.150E+00 0.000E+00 0.000E+00 0.000E+00 0.000E+00 0.000E+00 0.000E+00 0.119E-03    72.756     0.104     0.000
FRSE   21 000100002   10    0  4.0.90393E-01  3445.525     0.000     0.000     0.000  1685.336   924.830    76.044    90.334    22.638    22.582     1.129    33.707     0.000     0.000   891.093  2000.141   913.493   913.494     0.000  1582.804     0.000  2497.470    81.060    26.585    28.867    24.303    25.580    17.431    24.410    20.149     0.000     0.000     0.000     0.000     0.000     0.000     0.000     0.000     0.000     0.000     1.215    11.656   -10.054     0.287     1.989     0.330     0.702     0.000     7.238     1.710    41.783     5.111     4.039     0.037     1.647     0.281     0.000     0.031     0.000     3.577     0.074     7.617     0.000     7.355     5.000     5.149 .00000E+00 .00000E+00 0.667E-01 0.000E+00 0.000E+00 0.000E+00 0.000E+00 0.000E+00 0.000E+00 0.165E+01     1.173  1582.804     0.000
FRSE   22 000110001   11    0  4.0.22470E-01  3445.525     0.000     0.000     0.000  1685.490   917.179    74.429    90.324    12.791    12.946     0.647    33.710     0.000     0.000   801.832  2000.072   893.687   893.687     0.000  1620.026     0.000  2514.382    80.687    26.585    28.867    24.303    25.567    17.431    30.202    34.885     0.000     0.000     0.000     0.000     0.000     0.000     0.000     0.000     0.000     0.000     1.240    11.585    -9.984     0.289     1.977     0.336     0.709     0.000     7.427     1.732    42.413     5.189     4.119     0.037     1.624     0.132     0.000     0.028     0.000     3.671     0.074     6.817     0.000     7.448     5.000     5.213 .00000E+00 .00000E+00 0.572E-01 0.000E+00 0.000E+00 0.000E+00 0.000E+00 0.000E+00 0.000E+00 0.162E+01     0.669  1620.026     0.000
FRSE   23 000120001   12    0  4.0.69667E-01  3445.525     0.000     0.000     0.000  1685.497   917.177    74.429    90.324    13.187    13.348     0.667    33.710     0.000     0.000   807.367  2000.077   893.687   893.687     0.000  1619.631     0.000  2514.008    80.687    26.585    28.867    24.303    25.567    17.431    30.557    30.847     0.000     0.000     0.000     0.000     0.000     0.000     0.000     0.000     0.000     0.000     1.239    11.584    -9.983     0.289     1.976     0.336     0.709     0.000     7.426     1.732    42.447     5.193     4.123     0.037     1.622     0.136     0.000     0.028     0.000     3.670     0.074     6.819     0.000     7.447     5.000     5.213 .00000E+00 .00000E+00 0.571E-01 0.000E+00 0.000E+00 0.000E+00 0.000E+00 0.000E+00 0.000E+00 0.162E+01     0.689  1619.631     0.000
FRSE   24 000130001   13    0  4.0.41042E-03  3445.525     0.000     0.000     0.000  1685.562  1037.181   152.985   159.068  1369.290  1356.925    67.846    33.711     0.000     0.000  1049.967  2014.597  1039.678  1037.780     0.000     0.068  1257.534  2364.632    84.386    26.585    28.867    24.303    24.951    17.431     0.025     0.143     0.000     0.000     0.000     0.000     0.000     0.000     0.000     0.000     0.000     0.000     1.052    19.244   -16.648     0.253     3.285    -0.303    -0.228     0.000     6.253     1.503     0.595     0.073     0.047     0.031     0.000    13.759     0.369     0.300     0.000     0.000     0.074    14.651     0.000     6.469     4.928     4.528 .00000E+00 .00000E+00 0.160E+00 0.000E+00 0.000E+00 0.000E+00 0.000E+00 0.000E+00 0.000E+00 0.870E-04    69.249     0.068     0.000
FRSE   25 000130002   13    0  4.0.20520E-03  3445.525     0.000     0.000     0.000  1685.562  1037.045   152.961   159.066  1357.388  1345.122    67.256    33.711     0.000     0.000  1049.505  2014.472  1039.482  1039.449     0.000    12.183  1246.251  2366.531    84.384    26.585    28.867    24.303    24.951    17.431     0.282     0.588     0.000     0.000     0.000     0.000     0.000     0.000     0.000     0.000     0.000     0.000     1.052    19.191   -16.604     0.253     3.276    -0.263    -0.175     0.000     6.252     1.504     4.328     0.528     0.343     0.030     0.015    13.658     0.364     0.277     0.000     0.000     0.074    14.640     0.000     6.470     4.930     4.529 .00000E+00 .00000E+00 0.102E+00 0.000E+00 0.000E+00 0.000E+00 0.000E+00 0.000E+00 0.000E+00 0.153E-01    68.648    12.183     0.000
FRSE   26 000130003   13    0  4.0.21546E-02  3445.525     0.000     0.000     0.000  1685.562  1027.769   152.171   158.832   812.007   804.224    40.211    33.711     0.000     0.000  1028.108  2008.475  1033.951  1033.951     0.000   571.077   730.591  2376.730    84.294    26.585    28.867    24.303    24.925    17.431     3.379     5.690     0.000     0.000     0.000     0.000     0.000     0.000     0.000     0.000     0.000     0.000     1.224    18.783   -16.239     0.279     3.207     0.348     0.511     0.000     7.343     1.678    25.617     3.129     2.271     0.032     0.737     9.993     0.173     0.125     0.000     0.000     0.074     9.302     0.000     7.219     4.999     5.053 .00000E+00 .00000E+00 0.101E+00 0.000E+00 0.000E+00 0.000E+00 0.000E+00 0.000E+00 0.000E+00 0.737E+00    41.111   571.077     0.000
FRSE   27 000130004   13    0  4.0.30781E-03  3445.525     0.000     0.000     0.000  1685.562   952.536    80.527    90.347    85.382    84.320     4.216    33.711     0.000     0.000   995.249  2000.706   959.492   959.492     0.000  1446.782    47.820  2458.450    82.087    26.585    28.867    24.303    25.629    17.431     8.258    15.150     0.000     0.000     0.000     0.000     0.000     0.000     0.000     0.000     0.000     0.000     1.005    11.959   -10.361     0.256     2.040     0.341     0.665     0.000     5.858     1.496    36.117     4.414     3.422     0.032     1.748     1.393     0.003     0.056     0.000     2.943     0.074    14.979     0.000     6.421     4.998     4.494 .00000E+00 .00000E+00 0.862E-01 0.000E+00 0.000E+00 0.000E+00 0.000E+00 0.000E+00 0.000E+00 0.175E+01     4.356  1446.782     0.000
FRSE   28 000130005   13    0  4.0.71823E-03  3445.525     0.000     0.000     0.000  1685.562  1037.168   152.982   159.068  1368.020  1355.665    67.783    33.711     0.000     0.000  1049.918  2014.588  1039.657  1039.305     0.000     1.360  1256.330  2366.179    84.386    26.585    28.867    24.303    24.951    17.431     0.071     0.161     0.000     0.000     0.000     0.000     0.000     0.000     0.000     0.000     0.000     0.000     1.052    19.234   -16.639     0.253     3.284    -0.296    -0.218     0.000     6.251     1.503     1.368     0.167     0.107     0.031     0.002    13.745     0.369     0.296     0.000     0.000     0.074    14.657     0.000     6.468     4.929     4.527 .00000E+00 .00000E+00 0.105E+00 0.000E+00 0.000E+00 0.000E+00 0.000E+00 0.000E+00 0.000E+00 0.171E-02    69.185     1.360     0.000
FRSE   29 000130006   13    0  4.0.41042E-03  3445.525     0.000     0.000     0.000  1685.562  1036.955   152.947   159.066  1349.916  1337.714    66.886    33.711     0.000     0.000  1049.217  2014.385  1039.358  1039.349     0.000    19.806  1239.168  2366.594    84.382    26.585    28.867    24.303    24.950    17.431     0.386     0.761     0.000     0.000     0.000     0.000     0.000     0.000     0.000     0.000     0.000     0.000     1.052    19.171   -16.587     0.253     3.273    -0.245    -0.153     0.000     6.257     1.505     5.642     0.689     0.449     0.030     0.025    13.603     0.361     0.269     0.000     0.000     0.074    14.611     0.000     6.475     4.931     4.532 .00000E+00 .00000E+00 0.102E+00 0.000E+00 0.000E+00 0.000E+00 0.000E+00 0.000E+00 0.000E+00 0.249E-01    68.271    19.806     0.000
FRSE   30 000130007   13    0  4.0.21546E-02  3445.525     0.000     0.000     0.000  1685.562  1035.411   152.716   158.853  1227.136  1215.903    60.795    33.711     0.000     0.000  1044.464  2013.032  1037.605  1037.605     0.000   145.035  1122.689  2367.400    84.358    26.585    28.867    24.303    24.947    17.431     4.214     6.183     0.000     0.000     0.000     0.000     0.000     0.000     0.000     0.000     0.000     0.000     1.049    18.753   -16.251     0.252     3.202     0.067     0.301     0.000     6.310     1.518    28.607     3.495     2.552     0.026     0.178    12.649     0.310     0.107     0.000     0.000     0.074    14.215     0.000     6.532     4.950     4.572 .00000E+00 .00000E+00 0.101E+00 0.000E+00 0.000E+00 0.000E+00 0.000E+00 0.000E+00 0.000E+00 0.178E+00    62.070   145.035     0.000
FRSE   31 000130008   13    0  4.0.20520E-03  3445.525     0.000     0.000     0.000  1685.562   984.463    84.612    90.385   473.823   469.116    23.456    33.711     0.000     0.000  1016.933  2004.816   993.555   993.555     0.000   992.450   411.614  2421.615    83.072    26.585    28.867    24.303    25.721    17.431     7.675    14.011     0.000     0.000     0.000     0.000     0.000     0.000     0.000     0.000     0.000     0.000     0.594    12.119   -10.628     0.162     2.067     0.087     0.434     0.000     3.473     0.948    36.537     4.461     3.477     0.019     1.211     5.360     0.054     0.061     0.000     0.000     0.074    31.497     0.000     4.073     4.080     2.851 .00000E+00 .00000E+00 0.880E-01 0.000E+00 0.000E+00 0.000E+00 0.000E+00 0.000E+00 0.000E+00 0.121E+01    23.995   992.450     0.000
SWCH   32 000130009   13    0  4.0.71823E-03  3445.525     0.000     0.000     0.000  1685.562  1059.888   136.084   159.576   372.173   368.211    18.411    33.711     0.000     0.000  1018.014  2003.602   582.894   582.894     0.000  1429.842   317.918  2349.559    72.885    26.585    28.867    24.303    24.104    17.431     0.065     0.250     0.000     0.000   142.895     0.000     0.000     0.000     0.000     0.000     0.000     0.000    34.277    20.271   -11.819     8.256     3.478   -32.480   -28.200     0.000   150.232    42.819     0.988     0.128     0.065     0.883    11.370     4.439     0.047     0.211     0.000     0.000     0.888    73.524     0.000    39.050     5.583    25.408 .00000E+00 .00000E+00 0.321E-01 0.000E+00 0.000E+00 0.000E+00 0.000E+00 0.000E+00 0.000E+00 0.114E+02    18.905  1429.842     0.000
SWCH   33 000130010   13    0  4.0.30781E-03  3445.525     0.000     0.000     0.000  1685.562   990.888    63.281    91.110    53.696    52.978     2.649    33.711     0.000     0.000   988.723  2000.375   922.333   922.333     0.000  1477.635    18.788  2421.483    78.823    26.585    28.867    24.303    24.827    17.431     0.219     0.499     0.000     0.000   150.835     0.000     0.000     0.000     0.000     0.000     0.000     0.000    33.631    13.324    -6.054     8.201     2.290   -31.361   -26.909     0.000   141.395    40.683     3.066     0.395     0.192     1.996    15.262     0.567     0.001     0.244     0.000    15.361     0.888    74.847     0.000    35.757     5.634    23.215 .00000E+00 .00000E+00 0.989E-01 0.000E+00 0.000E+00 0.000E+00 0.000E+00 0.000E+00 0.000E+00 0.153E+02     2.727  1477.635     0.000
FRSE   34 000130011   13    0  4.0.10261E-03  3445.525     0.000     0.000     0.000  1685.562  1036.858   153.180   159.065  1890.064  1873.276    93.664    33.711     0.000     0.000  1065.497  2020.012   515.672   515.600     0.000     3.585  1752.271  2366.910    72.373    26.585    28.867    24.303    24.975    17.431     0.019     0.241     0.000     0.000     0.000     0.000     0.000     0.000     0.000     0.000     0.000     0.000     0.898    19.251   -16.678     0.223     3.287    -0.685    -0.556     0.000     5.336     1.327     0.323     0.039     0.025     0.008     0.004    14.651     0.510     0.145     0.000     0.000     0.074    19.925     0.000     5.713     4.690     3.999 .00000E+00 .00000E+00 0.384E-01 0.000E+00 0.000E+00 0.000E+00 0.000E+00 0.000E+00 0.000E+00 0.353E-02    95.454     3.585     0.000
FRSE   35 000130012   13    0  4.0.37040E-01  3445.525     0.000     0.000     0.000  1685.562   988.642   146.935   158.746   149.410   147.720     7.386    33.711     0.000     0.000  1003.210  2001.288   489.689   489.690     0.000  1815.988   107.010  2420.308    71.263    26.585    28.867    24.303    24.866    17.431     6.281    14.799     0.000     0.000     0.000     0.000     0.000     0.000     0.000     0.000     0.000     0.000     2.231    18.533   -15.828     0.324     3.164     0.977     1.118     0.000    11.402     1.956    29.348     3.577     2.711     0.020     1.958     2.875     0.011     0.044     0.000     0.000     0.074     0.589     0.000     8.428     5.000     5.900 .00000E+00 .00000E+00 0.228E-01 0.000E+00 0.000E+00 0.000E+00 0.000E+00 0.000E+00 0.000E+00 0.196E+01     7.621  1815.988     0.000
FRSE   36 000130013   13    0  4.0.20520E-03  3445.525     0.000     0.000     0.000  1685.562   996.990    86.147    90.431  1439.854  1427.109    71.355    33.711     0.000     0.000  1049.288  2015.359  1009.526  1007.685     0.000     0.104  1324.966  2405.510    83.482    26.585    28.867    24.303    25.752    17.431     0.050     0.348     0.000     0.000     0.000     0.000     0.000     0.000     0.000     0.000     0.000     0.000     0.535    12.814   -11.261     0.145     2.186    -1.393    -1.178     0.000     3.067     0.831     1.156     0.141     0.097     0.020     0.000    10.268     0.268     0.245     0.000     0.000     0.074    34.458     0.000     3.578     3.443     2.505 .00000E+00 .00000E+00 0.149E+00 0.000E+00 0.000E+00 0.000E+00 0.000E+00 0.000E+00 0.000E+00 0.119E-03    72.756     0.104     0.000
FRSE   37 000130014   13    0  4.0.10261E-03  3445.525     0.000     0.000     0.000  1685.562   996.495    86.114    90.429  1402.329  1389.889    69.494    33.711     0.000     0.000  1047.881  2014.944  1009.090  1009.085     0.000    38.215  1289.369  2407.531    83.475    26.585    28.867    24.303    25.752    17.431     1.005     2.088     0.000     0.000     0.000     0.000     0.000     0.000     0.000     0.000     0.000     0.000     0.528    12.654   -11.123     0.143     2.159    -1.264    -0.992     0.000     3.035     0.824    12.565     1.533     1.088     0.019     0.043    10.001     0.256     0.189     0.000     0.000     0.074    34.675     0.000     3.548     3.431     2.483 .00000E+00 .00000E+00 0.930E-01 0.000E+00 0.000E+00 0.000E+00 0.000E+00 0.000E+00 0.000E+00 0.428E-01    70.862    38.215     0.000
FRSE   38 000130015   13    0  4.0.20910E+00  3445.525     0.000     0.000     0.000  1685.562   917.180    74.428    90.322    11.746    11.888     0.594    33.711     0.000     0.000   787.124  2000.070   893.682   893.682     0.000  1621.074     0.000  2515.370    80.687    26.585    28.867    24.303    25.567    17.431    52.568    46.518     0.000     0.000     0.000     0.000     0.000     0.000     0.000     0.000     0.000     0.000     1.214    11.538    -9.956     0.284     1.969     0.338     0.710     0.000     7.402     1.729    43.618     5.339     4.278     0.036     1.614     0.121     0.000     0.022     0.000     3.666     0.074     6.901     0.000     7.437     5.000     5.206 .00000E+00 .00000E+00 0.566E-01 0.000E+00 0.000E+00 0.000E+00 0.000E+00 0.000E+00 0.000E+00 0.161E+01     0.614  1621.074     0.000
FRSD   39 000130016   13    0  4.0.10261E-03  3445.525     0.000     0.000     0.000  1685.562   997.204   141.481   158.798    67.912    67.638     3.382    33.711     0.000     0.000   988.866  2000.429   823.476   823.477     0.000  1555.770    33.576  2416.310    79.976    26.585    28.867    24.303    24.656    17.431     1.353     2.817     0.000     0.000     0.000     0.000     0.000     0.000     0.000     0.000     0.000     0.000     2.803    18.713   -15.469     0.791     3.197     0.745     0.797     0.000    13.484     2.682    13.968     1.736     1.299     0.057     1.631     1.150     0.002     0.189     0.000     0.000     0.385     6.465     0.000    11.445     4.993     8.011 .00000E+00 .00000E+00 0.520E-01 0.000E+00 0.000E+00 0.000E+00 0.000E+00 0.000E+00 0.000E+00 0.163E+01     3.488  1555.770     0.000
BARR   40 000130017   13    0  4.0.10261E-03  3445.525     0.000     0.000     0.000  1685.562   986.171   153.837   158.935   528.202   523.575    26.179    33.711     0.000     0.000  1019.566  2004.873  1918.374  1918.358     0.000    12.526   463.575  2421.354    94.065    26.585    28.867    24.303    25.217    17.431     6.155     6.870     0.000     0.000     0.000     0.000     0.000     0.000     0.000     0.000     0.000     0.000     0.018    18.764   -16.420     0.005     3.203     2.222     2.180     0.000     0.018     0.005    36.019     4.388     3.408     0.100     0.038    18.175     0.226     0.175     0.000    16.584     0.888     0.000     5.411     0.001     0.000     0.000 .00000E+00 .00000E+00 0.826E+00 0.000E+00 0.000E+00 0.000E+00 0.000E+00 0.000E+00 0.000E+00 0.384E-01    26.894    12.526     0.000
BARR   41 000130018   13    0  4.0.92342E-03  3445.525     0.000     0.000     0.000  1685.562   985.235   153.736   158.851   504.579   500.122    25.006    33.711     0.000     0.000  1019.164  2004.625  1917.872  1917.875     0.000    37.448   441.181  2422.200    94.062    26.585    28.867    24.303    25.217    17.431    19.309    20.211     0.000     0.000     0.000     0.000     0.000     0.000     0.000     0.000     0.000     0.000     0.018    18.545   -16.223     0.005     3.166     2.347     2.362     0.000     0.018     0.005    43.456     5.294     4.291     0.090     0.114    17.732     0.212     0.076     0.000    16.625     0.888     0.000     5.412     0.001     0.000     0.000 .00000E+00 .00000E+00 0.836E+00 0.000E+00 0.000E+00 0.000E+00 0.000E+00 0.000E+00 0.000E+00 0.114E+00    25.697    37.448     0.000
BARR   42 000130019   13    0  4.0.10261E-03  3445.525     0.000     0.000     0.000  1685.562   916.284    82.710    90.380   115.500   114.267     5.713    33.711     0.000     0.000   992.176  2000.723  2265.151  2265.151     0.000   147.432    77.238  2495.743    96.132    26.585    28.867    24.303    25.841    17.431    49.996    48.522     0.000     0.000     0.000     0.000     0.000     0.000     0.000     0.000     0.000     0.000     0.017    11.814   -10.474     0.005     2.015     1.718     1.909     0.000     0.017     0.004    48.558     5.916     4.994     0.190     0.695     9.071     0.028     0.040     0.000    25.752     0.888     0.000     5.637     0.001     0.000     0.000 .00000E+00 .00000E+00 0.217E+01 0.000E+00 0.000E+00 0.341E+04 0.121E+06 0.000E+00 0.000E+00 0.695E+00     5.922   147.432     0.000
