1
    SWAT Dec 23 2016    VER 2016/Rev 664                                                                 0/ 0/   0      0: 0: 0

    General Input/Output section (file.cio):                                        
    2/11/2020 16:51:48 QSWAT Workflow v1.5.2                                        
                                                                                    
         Number of years in run:   12
         Area of watershed:        1.675 km2
1
    SWAT Dec 23 2016    VER 2016/Rev 664                                            

    General Input/Output section (file.cio):                                        
    2/11/2020 16:51:48 QSWAT Workflow v1.5.2                                        
                                                                                    
Annual Summary for Watershed in year    1 of simulation

UNIT                                    PERCO    TILE                           WATER     SED     NO3     NO3     NO3     NO3        N       P       P
TIME     PREC    SURQ    LATQ     GWQ    LATE       Q     SW       ET     PET   YIELD   YIELD    SURQ    LATQ    PERC    CROP  ORGANIC SOLUBLE ORGANIC TILENO3
         (mm)    (mm)    (mm)    (mm)    (mm)    (mm)    (mm)    (mm)    (mm)    (mm)   (t/ha)  ------------------(kg nutrient/ha)-------------------- (kg/ha)
1
    SWAT Dec 23 2016    VER 2016/Rev 664                                            

    General Input/Output section (file.cio):                                        
    2/11/2020 16:51:48 QSWAT Workflow v1.5.2                                        
                                                                                    
Annual Summary for Watershed in year    2 of simulation

UNIT                                    PERCO    TILE                           WATER     SED     NO3     NO3     NO3     NO3        N       P       P
TIME     PREC    SURQ    LATQ     GWQ    LATE       Q     SW       ET     PET   YIELD   YIELD    SURQ    LATQ    PERC    CROP  ORGANIC SOLUBLE ORGANIC TILENO3
         (mm)    (mm)    (mm)    (mm)    (mm)    (mm)    (mm)    (mm)    (mm)    (mm)   (t/ha)  ------------------(kg nutrient/ha)-------------------- (kg/ha)
1
    SWAT Dec 23 2016    VER 2016/Rev 664                                            

    General Input/Output section (file.cio):                                        
    2/11/2020 16:51:48 QSWAT Workflow v1.5.2                                        
                                                                                    
Annual Summary for Watershed in year    3 of simulation

UNIT                                    PERCO    TILE                           WATER     SED     NO3     NO3     NO3     NO3        N       P       P
TIME     PREC    SURQ    LATQ     GWQ    LATE       Q     SW       ET     PET   YIELD   YIELD    SURQ    LATQ    PERC    CROP  ORGANIC SOLUBLE ORGANIC TILENO3
         (mm)    (mm)    (mm)    (mm)    (mm)    (mm)    (mm)    (mm)    (mm)    (mm)   (t/ha)  ------------------(kg nutrient/ha)-------------------- (kg/ha)
1
    SWAT Dec 23 2016    VER 2016/Rev 664                                            

    General Input/Output section (file.cio):                                        
    2/11/2020 16:51:48 QSWAT Workflow v1.5.2                                        
                                                                                    
Annual Summary for Watershed in year    4 of simulation

UNIT                                    PERCO    TILE                           WATER     SED     NO3     NO3     NO3     NO3        N       P       P
TIME     PREC    SURQ    LATQ     GWQ    LATE       Q     SW       ET     PET   YIELD   YIELD    SURQ    LATQ    PERC    CROP  ORGANIC SOLUBLE ORGANIC TILENO3
         (mm)    (mm)    (mm)    (mm)    (mm)    (mm)    (mm)    (mm)    (mm)    (mm)   (t/ha)  ------------------(kg nutrient/ha)-------------------- (kg/ha)
1
    SWAT Dec 23 2016    VER 2016/Rev 664                                            

    General Input/Output section (file.cio):                                        
    2/11/2020 16:51:48 QSWAT Workflow v1.5.2                                        
                                                                                    
Annual Summary for Watershed in year    5 of simulation

UNIT                                    PERCO    TILE                           WATER     SED     NO3     NO3     NO3     NO3        N       P       P
TIME     PREC    SURQ    LATQ     GWQ    LATE       Q     SW       ET     PET   YIELD   YIELD    SURQ    LATQ    PERC    CROP  ORGANIC SOLUBLE ORGANIC TILENO3
         (mm)    (mm)    (mm)    (mm)    (mm)    (mm)    (mm)    (mm)    (mm)    (mm)   (t/ha)  ------------------(kg nutrient/ha)-------------------- (kg/ha)
1
    SWAT Dec 23 2016    VER 2016/Rev 664                                            

    General Input/Output section (file.cio):                                        
    2/11/2020 16:51:48 QSWAT Workflow v1.5.2                                        
                                                                                    
Annual Summary for Watershed in year    6 of simulation

UNIT                                    PERCO    TILE                           WATER     SED     NO3     NO3     NO3     NO3        N       P       P
TIME     PREC    SURQ    LATQ     GWQ    LATE       Q     SW       ET     PET   YIELD   YIELD    SURQ    LATQ    PERC    CROP  ORGANIC SOLUBLE ORGANIC TILENO3
         (mm)    (mm)    (mm)    (mm)    (mm)    (mm)    (mm)    (mm)    (mm)    (mm)   (t/ha)  ------------------(kg nutrient/ha)-------------------- (kg/ha)
1
    SWAT Dec 23 2016    VER 2016/Rev 664                                            

    General Input/Output section (file.cio):                                        
    2/11/2020 16:51:48 QSWAT Workflow v1.5.2                                        
                                                                                    
Annual Summary for Watershed in year    7 of simulation

UNIT                                    PERCO    TILE                           WATER     SED     NO3     NO3     NO3     NO3        N       P       P
TIME     PREC    SURQ    LATQ     GWQ    LATE       Q     SW       ET     PET   YIELD   YIELD    SURQ    LATQ    PERC    CROP  ORGANIC SOLUBLE ORGANIC TILENO3
         (mm)    (mm)    (mm)    (mm)    (mm)    (mm)    (mm)    (mm)    (mm)    (mm)   (t/ha)  ------------------(kg nutrient/ha)-------------------- (kg/ha)
1
    SWAT Dec 23 2016    VER 2016/Rev 664                                            

    General Input/Output section (file.cio):                                        
    2/11/2020 16:51:48 QSWAT Workflow v1.5.2                                        
                                                                                    
Annual Summary for Watershed in year    8 of simulation

UNIT                                    PERCO    TILE                           WATER     SED     NO3     NO3     NO3     NO3        N       P       P
TIME     PREC    SURQ    LATQ     GWQ    LATE       Q     SW       ET     PET   YIELD   YIELD    SURQ    LATQ    PERC    CROP  ORGANIC SOLUBLE ORGANIC TILENO3
         (mm)    (mm)    (mm)    (mm)    (mm)    (mm)    (mm)    (mm)    (mm)    (mm)   (t/ha)  ------------------(kg nutrient/ha)-------------------- (kg/ha)
1
    SWAT Dec 23 2016    VER 2016/Rev 664                                            

    General Input/Output section (file.cio):                                        
    2/11/2020 16:51:48 QSWAT Workflow v1.5.2                                        
                                                                                    
Annual Summary for Watershed in year    9 of simulation

UNIT                                    PERCO    TILE                           WATER     SED     NO3     NO3     NO3     NO3        N       P       P
TIME     PREC    SURQ    LATQ     GWQ    LATE       Q     SW       ET     PET   YIELD   YIELD    SURQ    LATQ    PERC    CROP  ORGANIC SOLUBLE ORGANIC TILENO3
         (mm)    (mm)    (mm)    (mm)    (mm)    (mm)    (mm)    (mm)    (mm)    (mm)   (t/ha)  ------------------(kg nutrient/ha)-------------------- (kg/ha)
    1  576.60  162.79  295.91    1.44   10.98    0.00   97.94   87.35  117.39  460.26   12.96    0.01    0.42    0.24    0.00    25.34    0.01    3.10    0.00
    2  144.70   42.37   88.48    1.82    3.71    0.00   49.85   68.07  106.88  132.87    6.53    0.00    0.12    0.10    5.54     6.58    0.00    0.80    0.00
    3   93.80    0.02   39.34    1.26    0.00    0.00   20.72   83.54  115.48   40.83    0.00    0.00    0.00    0.00    0.80     0.00    0.00    0.00    0.00
    4  238.90   29.41  108.83    0.28    0.16    0.00   48.23   57.87  112.40  138.68    0.02    0.00    0.03    0.00    0.31     0.03    0.00    0.00    0.00
    5  134.70    1.57   77.28    0.16    0.15    0.00   44.12   74.18  133.57   79.18    0.00    0.00    0.05    0.00    0.03     0.00    0.00    0.00    0.00
    6  299.10   96.41  127.26    0.23    0.48    0.00   58.98   60.18   88.43  224.01    0.18    0.00    0.18    0.00    0.00     0.26    0.00    0.03    0.00
    7  248.80   13.83  149.85    0.36    0.80    0.00   70.67   72.87  102.85  164.13    0.04    0.00    0.20    0.01    0.01     0.07    0.00    0.01    0.00
    8  467.80  158.85  218.64    0.66    2.93    0.00   86.94   70.90  112.47  378.23    1.14    0.01    0.21    0.03    0.00     1.95    0.01    0.24    0.00
    9  166.70   19.01   76.38    0.94    0.57    0.00   77.83   80.14  150.23   96.41    0.34    0.00    0.05    0.01    0.00     0.47    0.00    0.06    0.00
   10  234.50   53.53   93.62    0.65    0.42    0.00   84.57   73.84  163.43  147.87    1.65    0.01    0.10    0.01    0.00     2.03    0.00    0.25    0.00
   11  180.90   27.19   81.24    0.39    0.31    0.00   82.89   74.59  149.86  108.88    1.55    0.00    0.09    0.01    0.00     1.63    0.00    0.20    0.00
   12  309.80   50.81  155.30    0.49    1.41    0.00   88.53   95.03  145.80  206.65    5.40    0.00    0.22    0.03    0.00     4.68    0.00    0.58    0.00

 2013 3096.30  655.79 1512.12    8.68   21.92    0.00   88.53  898.57 1498.81 2178.00   29.81    0.03    1.66    0.42    6.69    43.04    0.03    5.27    0.00
1
    SWAT Dec 23 2016    VER 2016/Rev 664                                            

    General Input/Output section (file.cio):                                        
    2/11/2020 16:51:48 QSWAT Workflow v1.5.2                                        
                                                                                    
Annual Summary for Watershed in year   10 of simulation

UNIT                                    PERCO    TILE                           WATER     SED     NO3     NO3     NO3     NO3        N       P       P
TIME     PREC    SURQ    LATQ     GWQ    LATE       Q     SW       ET     PET   YIELD   YIELD    SURQ    LATQ    PERC    CROP  ORGANIC SOLUBLE ORGANIC TILENO3
         (mm)    (mm)    (mm)    (mm)    (mm)    (mm)    (mm)    (mm)    (mm)    (mm)   (t/ha)  ------------------(kg nutrient/ha)-------------------- (kg/ha)
    1  549.60  175.07  275.75    1.10    8.46    0.00   89.66   95.61  142.87  452.01   11.33    0.00    0.38    0.13    0.00    29.20    0.01    3.57    0.00
    2  351.60   75.01  170.37    1.13    3.12    0.00   91.48   98.67  144.25  246.62    0.43    0.00    0.01    0.01    6.42     0.91    0.00    0.11    0.00
    3  222.80   39.26   93.70    1.25    0.43    0.00   55.69  128.92  167.25  134.35    0.02    0.00    0.00    0.00    1.11     0.04    0.00    0.01    0.00
    4  466.60   69.22  232.00    0.78    2.00    0.00   92.93  115.93  131.82  302.11    0.03    0.00    0.05    0.00    0.40     0.05    0.00    0.01    0.00
    5  221.20   40.26  112.76    0.97    1.00    0.00   90.76   78.56  141.33  154.12    0.03    0.00    0.12    0.00    0.03     0.04    0.00    0.01    0.00
    6  204.50   31.44   98.39    0.91    1.17    0.00   82.94   82.33  138.11  130.83    0.02    0.00    0.11    0.01    0.00     0.04    0.00    0.00    0.00
    7  729.10  446.67  180.10    0.79    5.77    0.00   97.00   64.31  111.58  627.55    1.28    0.01    0.27    0.04    0.01     2.11    0.02    0.26    0.00
    8  116.20    3.82   73.89    1.11    1.30    0.00   79.38   72.47  134.73   79.05    0.02    0.00    0.07    0.01    0.00     0.03    0.00    0.00    0.00
    9  109.60    8.97   47.75    0.48    0.13    0.00   76.97   55.66  137.79   57.30    0.13    0.00    0.06    0.00    0.00     0.20    0.00    0.02    0.00
   10   90.50    9.30   39.88    0.20    0.10    0.00   67.46   50.51  176.64   49.47    0.19    0.00    0.05    0.00    0.00     0.30    0.00    0.04    0.00
   11  332.20   51.36  175.13    0.24    1.12    0.00   85.46   86.22  134.85  226.81    2.02    0.00    0.31    0.02    0.00     2.76    0.00    0.34    0.00
   12  450.40  136.05  205.12    0.62    4.14    0.00   93.41   96.42  147.46  341.86    4.48    0.00    0.27    0.07    0.00     7.40    0.00    0.91    0.00

 2014 3844.30 1086.42 1704.83    9.57   28.73    0.00   93.41 1025.60 1708.68 2802.08   19.97    0.04    1.71    0.30    7.98    43.08    0.04    5.28    0.00
1
    SWAT Dec 23 2016    VER 2016/Rev 664                                            

    General Input/Output section (file.cio):                                        
    2/11/2020 16:51:48 QSWAT Workflow v1.5.2                                        
                                                                                    
Annual Summary for Watershed in year   11 of simulation

UNIT                                    PERCO    TILE                           WATER     SED     NO3     NO3     NO3     NO3        N       P       P
TIME     PREC    SURQ    LATQ     GWQ    LATE       Q     SW       ET     PET   YIELD   YIELD    SURQ    LATQ    PERC    CROP  ORGANIC SOLUBLE ORGANIC TILENO3
         (mm)    (mm)    (mm)    (mm)    (mm)    (mm)    (mm)    (mm)    (mm)    (mm)   (t/ha)  ------------------(kg nutrient/ha)-------------------- (kg/ha)
    1  682.50  240.06  319.00    1.32   12.54    0.00   95.22  101.03  139.19  560.48   20.90    0.00    0.43    0.26    0.00    37.41    0.01    4.57    0.00
    2  310.40   68.90  156.18    1.95    2.98    0.00   77.81  109.12  148.73  227.21    6.76    0.00    0.07    0.06    5.82     6.00    0.00    0.73    0.00
    3  174.40    6.57   75.49    1.63    0.19    0.00   71.89   97.76  136.43   83.89    0.00    0.00    0.00    0.00    1.02     0.00    0.00    0.00    0.00
    4  364.50  109.10  147.56    0.74    0.84    0.00   81.22   97.94  144.78  257.56    0.08    0.00    0.02    0.00    0.35     0.10    0.00    0.01    0.00
    5  421.40  104.73  210.51    0.95    4.87    0.00   92.95   89.08  125.98  316.34    0.08    0.01    0.18    0.01    0.03     0.11    0.00    0.01    0.00
    6  230.40   48.52  112.14    1.13    1.91    0.00   88.77   71.35  162.32  161.94    0.05    0.01    0.12    0.01    0.00     0.08    0.00    0.01    0.00
    7  101.30    3.02   46.24    0.77    0.18    0.00   71.70   70.16  169.73   50.18    0.00    0.00    0.04    0.00    0.01     0.01    0.00    0.00    0.00
    8  171.70   39.28   79.39    0.42    0.40    0.00   67.06   57.32  171.83  119.21    0.14    0.00    0.13    0.01    0.00     0.25    0.00    0.03    0.00
    9   30.50    0.00    9.46    0.16    0.00    0.00   59.41   28.68  151.15    9.72    0.00    0.00    0.02    0.00    0.00     0.00    0.00    0.00    0.00
   10  211.10   29.58  107.79    0.15    0.48    0.00   68.08   64.17  148.18  137.60    0.40    0.00    0.20    0.01    0.00     0.70    0.00    0.09    0.00
   11  541.90  203.24  236.08    0.26    4.95    0.00   91.52   72.06  148.99  439.63    8.81    0.00    0.38    0.07    0.00    11.28    0.01    1.39    0.00
   12  597.70  286.39  216.74    0.83    6.93    0.00   95.88   79.72  160.17  504.03   18.92    0.00    0.27    0.12    0.00    10.62    0.01    1.30    0.00

 2015 3837.80 1139.39 1716.59   10.30   36.28    0.00   95.88  938.38 1807.48 2867.80   56.14    0.04    1.87    0.56    7.23    66.56    0.03    8.15    0.00
1
    SWAT Dec 23 2016    VER 2016/Rev 664                                            

    General Input/Output section (file.cio):                                        
    2/11/2020 16:51:48 QSWAT Workflow v1.5.2                                        
                                                                                    
Annual Summary for Watershed in year   12 of simulation

UNIT                                    PERCO    TILE                           WATER     SED     NO3     NO3     NO3     NO3        N       P       P
TIME     PREC    SURQ    LATQ     GWQ    LATE       Q     SW       ET     PET   YIELD   YIELD    SURQ    LATQ    PERC    CROP  ORGANIC SOLUBLE ORGANIC TILENO3
         (mm)    (mm)    (mm)    (mm)    (mm)    (mm)    (mm)    (mm)    (mm)    (mm)   (t/ha)  ------------------(kg nutrient/ha)-------------------- (kg/ha)
    1  122.10    5.66   62.73    1.36    0.90    0.00   71.34   83.43  179.15   69.91    0.49    0.00    0.04    0.02    0.00     0.73    0.00    0.09    0.00
    2  182.20    6.81   90.72    0.82    0.28    0.00   65.11   90.29  176.42   98.49    0.01    0.00    0.01    0.00    6.64     0.02    0.00    0.00    0.00
    3  302.60   45.74  139.11    0.51    0.63    0.00   80.77  100.00  136.45  185.47    0.02    0.00    0.00    0.00    1.08     0.04    0.00    0.00    0.00
    4  986.50  437.41  419.23    1.05   17.43    0.00   98.39   80.10   98.97  857.73    0.14    0.01    0.10    0.02    0.28     0.47    0.01    0.06    0.00
    5   55.90   14.28   52.20    2.35    2.04    0.00   69.91   32.36  132.50   69.13    0.00    0.00    0.03    0.00    0.02     0.03    0.00    0.00    0.00
    6    2.60    0.00    0.46    1.47    0.00    0.00   60.45   11.58  133.36    2.16    0.00    0.00    0.01    0.00    0.00     0.00    0.00    0.00    0.00
    7  132.20   27.30   55.50    0.43    0.08    0.00   71.27   38.51  126.26   83.43    0.05    0.01    0.14    0.00    0.01     0.20    0.00    0.02    0.00
    8  160.10    9.78   74.09    0.11    0.22    0.00   69.99   76.54  189.15   84.14    0.04    0.00    0.10    0.00    0.00     0.09    0.00    0.01    0.00
    9  167.20   10.35   81.52    0.22    0.33    0.00   73.64   71.81  114.58   92.21    0.10    0.00    0.13    0.01    0.00     0.25    0.00    0.03    0.00
   10  159.00    2.76   70.73    0.22    0.24    0.00   75.21   79.13  159.92   73.81    0.04    0.00    0.07    0.01    0.00     0.08    0.00    0.01    0.00
   11  334.50   99.33  155.87    0.33    1.00    0.00   76.07   82.26  145.13  255.60    2.65    0.01    0.31    0.02    0.00     5.58    0.00    0.68    0.00
   12  398.80   82.50  205.89    0.51    3.74    0.00   91.66   87.92  134.30  288.96    5.60    0.00    0.32    0.06    0.00     7.64    0.00    0.94    0.00

 2016 3003.70  741.94 1408.06    9.36   26.91    0.00   91.66  833.93 1726.19 2161.03    9.15    0.04    1.27    0.14    8.04    15.14    0.02    1.85    0.00
1
    SWAT Dec 23 2016    VER 2016/Rev 664                                            

    General Input/Output section (file.cio):                                        
    2/11/2020 16:51:48 QSWAT Workflow v1.5.2                                        
                                                                                    
    FINAL VALUES

1
    SWAT Dec 23 2016    VER 2016/Rev 664                                            

    General Input/Output section (file.cio):                                        
    2/11/2020 16:51:48 QSWAT Workflow v1.5.2                                        
                                                                                    
                                            Average Plant Values (kg/ha)

  HRU       1 SUB   1 FRSE  Yld =  5113.4 BIOM =   7304.8
  HRU       2 SUB   2 FRSE  Yld =  5114.6 BIOM =   7306.5
  HRU       3 SUB   3 FRSE  Yld =  5211.1 BIOM =   7444.5
  HRU       4 SUB   3 FRSD  Yld =  4069.3 BIOM =   8410.6
  HRU       5 SUB   4 FRSE  Yld =  5221.5 BIOM =   7459.3
  HRU       6 SUB   5 FRSE  Yld =  2483.1 BIOM =   3547.2
  HRU       7 SUB   5 FRSE  Yld =  5210.9 BIOM =   7444.1
  HRU       8 SUB   5 FRSD  Yld =  4062.0 BIOM =   8396.8
  HRU       9 SUB   6 FRSE  Yld =  2505.4 BIOM =   3579.2
  HRU      10 SUB   6 FRSE  Yld =  2494.6 BIOM =   3563.8
  HRU      11 SUB   6 FRSE  Yld =  5211.6 BIOM =   7445.2
  HRU      12 SUB   6 FRSD  Yld =  4060.3 BIOM =   8393.6
  HRU      13 SUB   7 FRSE  Yld =  2505.6 BIOM =   3579.5
  HRU      14 SUB   7 FRSE  Yld =  5109.4 BIOM =   7299.1
  HRU      15 SUB   8 FRSE  Yld =  2505.4 BIOM =   3579.2
  HRU      16 SUB   8 FRSE  Yld =  2484.8 BIOM =   3549.7
  HRU      17 SUB   8 FRSE  Yld =  4838.8 BIOM =   6912.6
  HRU      18 SUB   9 FRSE  Yld =  5220.0 BIOM =   7457.1
  HRU      19 SUB  10 FRSE  Yld =  2482.1 BIOM =   3545.8
  HRU      20 SUB  10 FRSE  Yld =  5221.4 BIOM =   7459.2
  HRU      21 SUB  11 FRSE  Yld =  5211.9 BIOM =   7445.5
  HRU      22 SUB  12 FRSE  Yld =  5214.1 BIOM =   7448.8
  HRU      23 SUB  13 FRSE  Yld =  5209.7 BIOM =   7442.5
  HRU      24 SUB  14 FRSE  Yld =  5211.8 BIOM =   7445.5
  HRU      25 SUB  15 SWCH  Yld = 23214.2 BIOM =  40271.7
  HRU      26 SUB  15 FRSE  Yld =  5940.7 BIOM =   8486.7
  HRU      27 SUB  15 FRSE  Yld =  5206.9 BIOM =   7438.5
  HRU      28 SUB  15 FRSE  Yld =  4536.4 BIOM =   6480.5
  HRU      29 SUB  16 SWCH  Yld = 25408.2 BIOM =  43724.9
  HRU      30 SUB  16 FRSE  Yld =  5924.7 BIOM =   8463.8
  HRU      31 SUB  16 FRSE  Yld =  2504.8 BIOM =   3578.3
  HRU      32 SUB  16 FRSE  Yld =  5205.7 BIOM =   7436.8
  HRU      33 SUB  16 FRSE  Yld =  5116.8 BIOM =   7309.8
  HRU      34 SUB  17 FRSE  Yld =  5214.8 BIOM =   7449.7
  HRU      35 SUB  18 FRSE  Yld =  4965.2 BIOM =   7093.1
  HRU      36 SUB  19 FRSE  Yld =  2505.7 BIOM =   3579.6
  HRU      37 SUB  19 FRSE  Yld =  5210.6 BIOM =   7443.7
  HRU      38 SUB  20 FRSE  Yld =  5214.4 BIOM =   7449.1
  HRU      39 SUB  21 FRSE  Yld =  5049.8 BIOM =   7213.9
  HRU      40 SUB  22 FRSE  Yld =  5216.0 BIOM =   7451.4
  HRU      41 SUB  23 FRSE  Yld =  2503.2 BIOM =   3576.0
  HRU      42 SUB  23 FRSE  Yld =  5097.1 BIOM =   7281.6
  HRU      43 SUB  24 FRSE  Yld =  5210.5 BIOM =   7443.6
  HRU      44 SUB  25 FRSE  Yld =  5200.6 BIOM =   7429.4
  HRU      45 SUB  26 FRSE  Yld =  5213.3 BIOM =   7447.5
  HRU      46 SUB  27 FRSE  Yld =  5204.2 BIOM =   7434.6
  HRU      47 SUB  28 FRSE  Yld =  4728.0 BIOM =   6754.3
  HRU      48 SUB  29 FRSE  Yld =  4023.7 BIOM =   5748.1
  HRU      49 SUB  29 FRSE  Yld =  2483.5 BIOM =   3547.8
  HRU      50 SUB  29 FRSE  Yld =  5209.5 BIOM =   7442.2
  HRU      51 SUB  29 FRSE  Yld =  4536.2 BIOM =   6480.3
  HRU      52 SUB  29 FRSE  Yld =  4585.8 BIOM =   6551.1
  HRU      53 SUB  30 FRSE  Yld =  4006.7 BIOM =   5723.9
  HRU      54 SUB  30 FRSE  Yld =  5217.6 BIOM =   7453.6
  HRU      55 SUB  30 FRSE  Yld =  4494.6 BIOM =   6420.9
  HRU      56 SUB  30 FRSE  Yld =  4529.1 BIOM =   6470.1
  HRU      57 SUB  30 FRSE  Yld =  4536.4 BIOM =   6480.5
  HRU      58 SUB  31 BARR  Yld =     0.0 BIOM =      1.0
  HRU      59 SUB  31 BARR  Yld =     0.0 BIOM =      1.0
  HRU      60 SUB  31 BARR  Yld =     0.0 BIOM =      1.0
  HRU      61 SUB  31 FRSE  Yld =  3999.2 BIOM =   5713.1
  HRU      62 SUB  31 FRSE  Yld =  5591.1 BIOM =   7987.2
  HRU      63 SUB  31 FRSE  Yld =  5211.8 BIOM =   7445.5
  HRU      64 SUB  31 FRSE  Yld =  4528.0 BIOM =   6468.6
  HRU      65 SUB  31 FRSE  Yld =  4529.3 BIOM =   6470.4
  HRU      66 SUB  31 FRSE  Yld =  5047.6 BIOM =   7210.9
  HRU      67 SUB  31 FRSD  Yld =  5340.8 BIOM =  11125.7
  HRU      68 SUB  31 FRSD  Yld =  3899.6 BIOM =   8238.3
  HRU      69 SUB  31 FRSD  Yld =  3902.7 BIOM =   8244.2
  HRU      70 SUB  31 FRSD  Yld =  4082.5 BIOM =   8588.9
  HRU      71 SUB  31 FRSD  Yld =  2570.8 BIOM =   5476.9

    HRU STATISTICS

                AVE ANNUAL VALUES

   HRU  SUB  SOIL       AREAkm2    CN     AWCmm   USLE_LS  IRRmm  AUTONkh AUTOPkh  MIXEF PRECmm SURQGENmm   GWQmm    ETmm   SEDth  NO3kgh  ORGNkgh BIOMth   YLDth  SURQmm
      1   1   FAGASA     .873E-01   70.00   97.20    7.99    0.00    0.00    0.00    0.20 3445.52  918.90 1571.52  927.30   23.53    1.69   41.68    7.30    5.11  918.91
      2   2   FAGASA     .167E+00   70.00   97.20    8.01    0.00    0.00    0.00    0.20 3445.52  918.52 1572.33  927.12   25.48    1.69   41.96    7.31    5.11  918.52
      3   3   FAGASA     .377E-01   70.00   97.20   12.96    0.00    0.00    0.00    0.20 3445.52  893.66 1620.08  917.26   33.15    1.66   42.67    7.44    5.21  893.66
      4   3   FAGASA     .298E-02   77.00   97.20   21.18    0.00    0.00    0.00    0.20 3445.52 1130.66 1386.30  926.12   15.91    1.38   45.26    8.72    6.10 1130.66
      5   4   FAGASA     .309E-01   70.00   97.20    9.60    0.00    0.00    0.00    0.20 3445.52  894.29 1617.54  917.37   23.95    1.66   41.64    7.46    5.22  894.29
      6   5   FAGASA     .103E-03   70.00   97.20    0.42    0.00    0.00    0.00    0.20 3445.52 1009.07 1327.58  996.60    1.01    0.06   12.57    3.55    2.48 1009.07
      7   5   FAGASA     .358E-01   70.00   97.20   13.20    0.00    0.00    0.00    0.20 3445.52  893.66 1620.14  917.26   33.58    1.66   42.70    7.44    5.21  893.67
      8   5   FAGASA     .252E-01   77.00   97.20   21.18    0.00    0.00    0.00    0.20 3445.52 1130.68 1386.28  926.12   20.62    1.37   47.24    8.70    6.09 1130.68
      9   6   FAGASA     .103E-03   70.00   97.20    0.07    0.00    0.00    0.00    0.20 3445.52 1009.50 1325.06  997.13    0.03    0.02    0.70    3.58    2.51 1007.66
     10   6   FAGASA     .103E-03   70.00   97.20    0.21    0.00    0.00    0.00    0.20 3445.52 1009.33 1326.03  996.93    0.44    0.04    6.51    3.56    2.49 1009.28
     11   6   FAGASA     .234E-01   70.00   97.20   13.28    0.00    0.00    0.00    0.20 3445.52  893.66 1620.15  917.28   32.09    1.66   42.58    7.45    5.21  893.66
     12   6   FAGASA     .423E-01   77.00   97.20   21.18    0.00    0.00    0.00    0.20 3445.52 1130.62 1386.29  926.17   21.94    1.36   47.66    8.70    6.09 1130.62
     13   7   FAGASA     .103E-03   70.00   97.20    0.07    0.00    0.00    0.00    0.20 3445.52 1009.51 1325.06  997.07    0.03    0.02    0.70    3.58    2.51 1007.67
     14   7   FAGASA     .558E-01   70.00   97.20    7.94    0.00    0.00    0.00    0.20 3445.52  919.68 1569.90  927.63   22.17    1.70   41.45    7.30    5.11  919.68
     15   8   FAGASA     .103E-03   70.00   97.20    0.07    0.00    0.00    0.00    0.20 3445.52 1009.50 1325.06  997.13    0.03    0.02    0.70    3.58    2.51 1007.66
     16   8   FAGASA     .308E-03   70.00   97.20    0.31    0.00    0.00    0.00    0.20 3445.52 1009.14 1327.08  996.72    0.88    0.05   11.34    3.55    2.48 1009.13
     17   8   FAGASA     .645E-01   70.00   97.20    6.12    0.00    0.00    0.00    0.20 3445.52  943.71 1525.33  941.06   18.82    1.74   40.99    6.91    4.84  943.71
     18   9   FAGASA     .488E-01   70.00   97.20    9.66    0.00    0.00    0.00    0.20 3445.52  894.16 1617.83  917.31   25.43    1.66   41.86    7.46    5.22  894.16
     19  10   FAGASA     .103E-03   70.00   97.20    0.44    0.00    0.00    0.00    0.20 3445.52 1009.07 1327.67  996.55    1.06    0.06   13.04    3.55    2.48 1009.06
     20  10   FAGASA     .536E-01   70.00   97.20    9.50    0.00    0.00    0.00    0.20 3445.52  894.58 1617.03  917.38   25.29    1.65   41.84    7.46    5.22  894.58
     21  11   FAGASA     .629E-01   70.00   97.20   11.77    0.00    0.00    0.00    0.20 3445.52  893.67 1619.78  917.23   32.00    1.66   42.57    7.45    5.21  893.67
     22  12   FAGASA     .120E+00   70.00   97.20   10.41    0.00    0.00    0.00    0.20 3445.52  893.68 1619.18  917.23   30.53    1.66   42.45    7.45    5.21  893.68
     23  13   FAGASA     .115E+00   70.00   97.20   12.99    0.00    0.00    0.00    0.20 3445.52  893.68 1620.12  917.21   37.98    1.65   42.99    7.44    5.21  893.68
     24  14   FAGASA     .377E-01   70.00   97.20   12.91    0.00    0.00    0.00    0.20 3445.52  893.68 1620.11  917.19   33.01    1.66   42.65    7.45    5.21  893.68
     25  15   FAGASA     .308E-03   72.00   97.20    5.06    0.00  150.84    0.00    0.20 3445.52  922.30 1496.41  990.94    0.22   17.26    3.07   35.76   23.21  922.30
     26  15   AUA        .492E-02   55.00  165.80    9.82    0.00    0.00    0.00    0.20 3445.52  484.09 1938.83  982.07    5.92    2.09   28.79    8.49    5.94  484.09
     27  15   FAGASA     .431E-01   70.00   97.20   18.43    0.00    0.00    0.00    0.20 3445.52  893.68 1621.48  917.19   47.97    1.65   43.45    7.44    5.21  893.68
     28  15   AUA        .103E-03   70.00  165.80    0.52    0.00    0.00    0.00    0.20 3445.52 1039.20 1259.66 1036.85    0.52    0.07    7.24    6.48    4.54 1039.19
     29  16   AUA        .718E-03   59.00  165.80    3.09    0.00  142.90    0.00    0.20 3445.52  582.87 1747.73 1059.94    0.07   12.25    0.99   39.05   25.41  582.87
     30  16   AUA        .268E-01   55.00  165.80    8.88    0.00    0.00    0.00    0.20 3445.52  487.25 1930.27  985.55    6.60    2.03   29.73    8.46    5.92  487.25
     31  16   FAGASA     .205E-03   70.00   97.20    0.07    0.00    0.00    0.00    0.20 3445.52 1009.52 1325.07  997.00    0.05    0.02    1.16    3.58    2.50 1007.68
     32  16   FAGASA     .629E-01   70.00   97.20   19.48    0.00    0.00    0.00    0.20 3445.52  893.68 1621.73  917.19   53.09    1.65   43.63    7.44    5.21  893.68
     33  16   AUA        .308E-03   70.00  165.80    2.68    0.00    0.00    0.00    0.20 3445.52 1033.42 1305.13 1026.66    3.10    0.83   24.51    7.31    5.12 1033.42
     34  17   FAGASA     .531E-01   70.00   97.20   10.54    0.00    0.00    0.00    0.20 3445.52  893.67 1619.27  917.25   28.07    1.66   42.19    7.45    5.21  893.67
     35  18   FAGASA     .113E-02   70.00   97.20    6.75    0.00    0.00    0.00    0.20 3445.52  935.97 1538.63  936.07   12.35    1.75   38.60    7.09    4.97  935.97
     36  19   FAGASA     .103E-03   70.00   97.20    0.07    0.00    0.00    0.00    0.20 3445.52 1009.52 1325.06  997.04    0.03    0.02    0.70    3.58    2.51 1007.68
     37  19   FAGASA     .502E-01   70.00   97.20   13.46    0.00    0.00    0.00    0.20 3445.52  893.68 1620.24  917.21   35.64    1.66   42.84    7.44    5.21  893.68
     38  20   FAGASA     .272E-01   70.00   97.20   11.34    0.00    0.00    0.00    0.20 3445.52  893.68 1619.69  917.19   27.88    1.66   42.17    7.45    5.21  893.68
     39  21   FAGASA     .137E+00   70.00   97.20    7.44    0.00    0.00    0.00    0.20 3445.52  926.78 1554.08  931.10   23.59    1.71   41.77    7.21    5.05  926.78
     40  22   FAGASA     .168E-01   70.00   97.20   11.05    0.00    0.00    0.00    0.20 3445.52  893.69 1619.62  917.16   25.64    1.66   41.89    7.45    5.22  893.69
     41  23   FAGASA     .205E-03   70.00   97.20    0.07    0.00    0.00    0.00    0.20 3445.52 1009.51 1325.13  997.02    0.10    0.02    1.92    3.58    2.50 1008.94
     42  23   FAGASA     .328E-01   70.00   97.20    7.80    0.00    0.00    0.00    0.20 3445.52  921.59 1565.80  928.50   20.56    1.70   41.16    7.28    5.10  921.59
     43  24   FAGASA     .125E-01   70.00   97.20    9.15    0.00    0.00    0.00    0.20 3445.52  899.87 1607.87  919.43   20.62    1.67   41.05    7.44    5.21  899.87
     44  25   FAGASA     .221E-01   70.00   97.20    8.99    0.00    0.00    0.00    0.20 3445.52  902.84 1602.69  920.58   21.78    1.67   41.29    7.43    5.20  902.84
     45  26   FAGASA     .225E-01   70.00   97.20   12.57    0.00    0.00    0.00    0.20 3445.52  893.69 1620.03  917.18   30.20    1.66   42.41    7.45    5.21  893.69
     46  27   FAGASA     .311E-01   70.00   97.20    9.07    0.00    0.00    0.00    0.20 3445.52  901.35 1605.29  920.02   22.85    1.67   41.48    7.43    5.20  901.35
     47  28   FAGASA     .923E-03   70.00   97.20    5.53    0.00    0.00    0.00    0.20 3445.52  950.36 1512.83  945.56   10.54    1.77   37.76    6.75    4.73  950.36
     48  29   AUA        .718E-03   55.00  165.80    0.96    0.00    0.00    0.00    0.20 3445.52  514.36 1762.29 1036.07    0.72    0.11    9.16    5.75    4.02  514.36
     49  29   FAGASA     .103E-03   70.00   97.20    0.42    0.00    0.00    0.00    0.20 3445.52 1009.09 1327.58  996.49    1.01    0.06   12.56    3.55    2.48 1009.09
     50  29   FAGASA     .816E-01   70.00   97.20   14.13    0.00    0.00    0.00    0.20 3445.52  893.69 1620.44  917.16   39.67    1.65   43.08    7.44    5.21  893.69
     51  29   AUA        .103E-03   70.00  165.80    0.46    0.00    0.00    0.00    0.20 3445.52 1039.24 1259.48 1036.86    0.45    0.06    6.39    6.48    4.54 1039.24
     52  29   AUA        .103E-03   70.00  165.80    2.41    0.00    0.00    0.00    0.20 3445.52 1037.64 1267.46 1035.43    2.70    0.20   23.22    6.55    4.59 1037.64
     53  30   AUA        .205E-03   55.00  165.80    0.80    0.00    0.00    0.00    0.20 3445.52  515.03 1758.96 1036.45    0.49    0.06    6.65    5.72    4.01  515.03
     54  30   FAGASA     .513E-02   70.00   97.20   11.77    0.00    0.00    0.00    0.20 3445.52  893.70 1619.84  917.13   23.68    1.67   41.60    7.45    5.22  893.70
     55  30   FAGASA     .308E-03   70.00   97.20    4.66    0.00    0.00    0.00    0.20 3445.52  959.49 1494.62  952.52    8.26    1.78   36.12    6.42    4.49  959.49
     56  30   AUA        .103E-03   70.00  165.80    0.08    0.00    0.00    0.00    0.20 3445.52 1039.66 1257.70 1037.13    0.03    0.03    0.50    6.47    4.53 1039.31
     57  30   AUA        .103E-03   70.00  165.80    0.52    0.00    0.00    0.00    0.20 3445.52 1039.21 1259.66 1036.81    0.52    0.07    7.24    6.48    4.54 1039.20
     58  31   AUA        .103E-03   86.00  165.80    0.44    0.00    0.00    0.00    0.20 3445.52 1918.37  476.11  986.16    6.15    0.14   36.02    0.00    0.00 1918.36
     59  31   AUA        .923E-03   86.00  165.80    0.96    0.00    0.00    0.00    0.20 3445.52 1917.87  478.64  985.22   19.30    0.20   43.46    0.00    0.00 1917.87
     60  31   FAGASA     .103E-03   91.00   97.20    1.93    0.00    0.00    0.00    0.20 3445.52 2265.15  224.72  916.27   49.99    0.89   48.56    0.00    0.00 2265.15
     61  31   AUA        .103E-03   55.00  165.80    0.10    0.00    0.00    0.00    0.20 3445.52  515.67 1755.86 1036.83    0.02    0.01    0.32    5.71    4.00  515.60
     62  31   AUA        .441E-02   55.00  165.80    3.79    0.00    0.00    0.00    0.20 3445.52  500.97 1880.86 1006.47    2.47    1.73   20.89    7.99    5.59  500.97
     63  31   FAGASA     .164E-01   70.00   97.20   14.65    0.00    0.00    0.00    0.20 3445.52  893.69 1620.59  917.14   33.92    1.66   42.72    7.45    5.21  893.69
     64  31   AUA        .410E-03   70.00  165.80    0.07    0.00    0.00    0.00    0.20 3445.52 1039.68 1257.60 1037.15    0.02    0.03    0.59    6.47    4.53 1037.79
     65  31   AUA        .205E-03   70.00  165.80    0.27    0.00    0.00    0.00    0.20 3445.52 1039.49 1258.44 1037.01    0.28    0.05    4.33    6.47    4.53 1039.46
     66  31   AUA        .185E-02   70.00  165.80    2.22    0.00    0.00    0.00    0.20 3445.52 1034.02 1301.21 1027.86    3.26    0.76   25.18    7.21    5.05 1034.02
     67  31   AUA        .103E-03   66.00  165.80    9.71    0.00    0.00    0.00    0.20 3445.52  823.52 1589.36  997.14    1.35    1.69   13.97   11.44    8.01  823.52
     68  31   AUA        .616E-03   66.00  165.80    0.08    0.00    0.00    0.00    0.20 3445.52  876.20 1401.18 1049.63    0.01    0.03    0.23    8.36    5.85  875.91
     69  31   AUA        .308E-03   66.00  165.80    0.29    0.00    0.00    0.00    0.20 3445.52  876.01 1401.95 1049.52    0.07    0.04    1.05    8.36    5.85  875.99
     70  31   AUA        .185E-02   66.00  165.80    1.67    0.00    0.00    0.00    0.20 3445.52  872.57 1426.15 1046.23    0.60    0.46    7.85    8.75    6.12  872.57
     71  31   FAGASA     .205E-03   66.00   97.20    2.92    0.00    0.00    0.00    0.20 3445.52  831.51 1555.34  994.38    2.22    1.18   21.87    5.51    3.86  831.51



                AVE MONTHLY BASIN VALUES
                   SNOW                      WATER               SED
  MON     RAIN     FALL   SURF Q    LAT Q    YIELD       ET    YIELD      PET
          (MM)     (MM)     (MM)     (MM)     (MM)     (MM)   (T/HA)     (MM)
    1   482.70     0.00   145.89   238.35   385.66    91.85    11.42   144.65
    2   253.79     0.00    49.56   129.80   180.98    93.97     3.52   147.90
    3   198.40     0.00    22.90    86.91   111.14   102.55     0.01   138.90
    4   514.12     0.00   161.28   226.90   389.02    87.96     0.07   121.99
    5   208.30     0.00    40.21   113.19   154.69    68.55     0.03   133.35
    6   184.15     0.00    44.09    84.56   129.74    56.36     0.06   130.56
    7   302.85     0.00   122.70   107.92   231.32    61.46     0.34   127.60
    8   228.95     0.00    52.93   111.50   165.16    69.31     0.34   152.05
    9   118.50     0.00     9.58    53.77    63.91    59.07     0.14   138.44
   10   173.77     0.00    23.79    78.01   102.19    66.91     0.57   162.04
   11   347.37     0.00    95.28   162.08   257.73    78.78     3.76   144.71
   12   439.17     0.00   138.94   195.77   335.38    89.78     8.60   146.93

     AVE ANNUAL BASIN STRESS DAYS
               WATER STRESS DAYS =     1.86
               TEMPERATURE STRESS DAYS =     0.09
               NITROGEN STRESS DAYS =     8.28
               PHOSPHORUS STRESS DAYS =     0.00
               AERATION STRESS DAYS =     0.00
1
    SWAT Dec 23 2016    VER 2016/Rev 664                                            

    General Input/Output section (file.cio):                                        
    2/11/2020 16:51:48 QSWAT Workflow v1.5.2                                        
                                                                                    
         AVE ANNUAL BASIN VALUES

              PRECIP =   3445.5 MM
              SNOW FALL =    0.00 MM
              SNOW MELT =     0.00 MM
              SUBLIMATION =     0.00 MM
              SURFACE RUNOFF Q =   905.89 MM
              LATERAL SOIL Q = 1585.40 MM
              TILE Q =     0.00 MM
              GROUNDWATER (SHAL AQ) Q =     9.48 MM
              GROUNDWATER (DEEP AQ) Q =     1.46 MM
              REVAP (SHAL AQ => SOIL/PLANTS) =   32.99 MM
              DEEP AQ RECHARGE =     1.42 MM
              TOTAL AQ RECHARGE =   28.38 MM
              TOTAL WATER YLD =  2502.23 MM
              PERCOLATION OUT OF SOIL =   28.46 MM
              ET =    924.1 MM
              PET =   1685.3MM
              TRANSMISSION LOSSES =     0.00 MM
              SEPTIC INFLOW =       0.00 MM
              TOTAL SEDIMENT LOADING =     28.77 T/HA
              TILE FROM IMPOUNDED WATER =     0.000 (MM)
              EVAPORATION FROM IMPOUNDED WATER =     0.000 (MM)
              SEEPAGE INTO SOIL FROM IMPOUNDED WATER =    0.000 (MM)
              OVERFLOW FROM IMPOUNDED WATER =    0.000 (MM)
1
    SWAT Dec 23 2016    VER 2016/Rev 664                                            

    General Input/Output section (file.cio):                                        
    2/11/2020 16:51:48 QSWAT Workflow v1.5.2                                        
                                                                                    
              AVE ANNUAL BASIN VALUES


              NUTRIENTS
                   ORGANIC N =    41.957 (KG/HA)
                   ORGANIC P =     5.138 (KG/HA)
                   NO3 YIELD (SQ) =     0.038 (KG/HA)
                   NO3 YIELD (LAT) =    1.629 (KG/HA)
                   NO3 YIELD (TILE) =    0.000 (KG/HA)
                   SOLP YIELD (TILE) =    0.000(KG/HA)
                   SOLP YIELD (SURF INLET RISER) =    0.000 (KG/HA)
                   SOL P YIELD =    0.032 (KG/HA)
                   NO3 LEACHED =     0.355 (KG/HA)
                   P LEACHED =     0.011 (KG/HA)
                   N UPTAKE =     7.485 (KG/HA)
                   P UPTAKE =    1.756 (KG/HA)
                   NO3 YIELD (GWQ) =     0.002 (KG/HA)
                   ACTIVE TO SOLUTION P FLOW =         0.326 (KG/HA)
                   ACTIVE TO STABLE P FLOW =         0.693 (KG/HA)
                   N FERTILIZER APPLIED =     0.089 (KG/HA)
                   P FERTILIZER APPLIED =     0.000 (KG/HA)
                   N FIXATION =     0.000 (KG/HA)
                   DENITRIFICATION =     0.000 (KG/HA)
                   HUMUS MIN ON ACTIVE ORG N =    11.790 (KG/HA)
                   ACTIVE TO STABLE ORG N =   -10.154 (KG/HA)
                   HUMUS MIN ON ACTIVE ORG P =    2.012 (KG/HA)
                   MIN FROM FRESH ORG N =    1.278 (KG/HA)
                   MIN FROM FRESH ORG P =    0.305 (KG/HA)
                   NO3 IN RAINFALL =     0.000 (KG/HA)
                   INITIAL NO3 IN SOIL =      37.092 (KG/HA)
                   FINAL NO3 IN SOIL =         5.531 (KG/HA)
                   INITIAL ORG N IN SOIL =   11056.044 (KG/HA)
                   FINAL ORG N IN SOIL =     10116.049 (KG/HA)
                   INITIAL MIN P IN SOIL =    1757.359 (KG/HA)
                   FINAL MIN P IN SOIL =      1685.834 (KG/HA)
                   INITIAL ORG P IN SOIL =    1354.365 (KG/HA)
                   FINAL ORG P IN SOIL =    1232.031 (KG/HA)
                   NO3 IN FERT =     0.089 (KG/HA)
                   AMMONIA IN FERT =     0.000 (KG/HA)
                   ORG N IN FERT =     0.000 (KG/HA)
                   MINERAL P IN FERT =     0.000 (KG/HA)
                   ORG P IN FERT =     0.000 (KG/HA)
                   N REMOVED IN YIELD =     5.969 (KG/HA)
                   P REMOVED IN YIELD =     1.404 (KG/HA)
                   AMMONIA VOLATILIZATION =     0.000 (KG/HA)
                   AMMONIA NITRIFICATION =      0.000 (KG/HA)
                   NO3 EVAP-LAYER 2 TO 1 =    3.272

                   DIE-GRO P Q =           0.0 (No/M2)
                   DIE-GRO LP Q =           0.0 (No/M2)
                   DIE-GRO P SED =          0.0 (No/M2)
                   DIE-GRO LP SED =          0.0 (No/M2)
                   BACT P RUNOFF =          0.0 (No/M2)
                   BACT LP RUNOFF =          0.0 (No/M2)
                   BACT P SEDIMENT =          0.0 (No/M2)
                   BACT LP SEDIMENT =          0.0 (No/M2)
                   BACT P INCORP =          0.0 (No/M2)
                   BACT LP INCORP =          0.0 (No/M2)

                   NITRATE SEPTIC =         0.00 (kg/ha)
                   AMMONIA SEPTIC =         0.00 (kg/ha)
                   ORG N SEPTIC =         0.00 (kg/ha)
                   FRESH ORGN SEPTIC =         0.00 (kg/ha)
                   ORG P SEPTIC =         0.00 (kg/ha)
                   FRESH ORGP SEPTIC =         0.00 (kg/ha)
                   SOL P SEPTIC =         0.00 (kg/ha)
                   BOD SEPTIC =         0.00 (kg/ha)
