1
    SWAT Dec 23 2016    VER 2016/Rev 664                                                                 0/ 0/   0      0: 0: 0

    General Input/Output section (file.cio):                                        
    2/11/2020 16:51:48 QSWAT Workflow v1.5.2                                        
                                                                                    


LULC  HRU       GIS  SUB  MGT  MON   AREAkm2  PRECIPmm SNOFALLmm SNOMELTmm     IRRmm     PETmm      ETmm SW_INITmm  SW_ENDmm    PERCmm GW_RCHGmm DA_RCHGmm   REVAPmm  SA_IRRmm  DA_IRRmm   SA_STmm   DA_STmmSURQ_GENmmSURQ_CNTmm   TLOSSmm LATQGENmm    GW_Qmm    WYLDmm   DAILYCN TMP_AVdgC TMP_MXdgC TMP_MNdgCSOL_TMPdgCSOLARMJ/m2  SYLDt/ha  USLEt/haN_APPkg/haP_APPkg/haNAUTOkg/haPAUTOkg/ha NGRZkg/ha PGRZkg/haNCFRTkg/haPCFRTkg/haNRAINkg/ha NFIXkg/ha F-MNkg/ha A-MNkg/ha A-SNkg/ha F-MPkg/haAO-LPkg/ha L-APkg/ha A-SPkg/ha DNITkg/ha  NUPkg/ha  PUPkg/ha ORGNkg/ha ORGPkg/ha SEDPkg/haNSURQkg/haNLATQkg/ha NO3Lkg/haNO3GWkg/ha SOLPkg/ha P_GWkg/ha    W_STRS  TMP_STRS    N_STRS    P_STRS  BIOMt/ha       LAI   YLDt/ha  BACTPct   BACTLPct WTAB CLIm WTAB SOLm     SNOmm CMUPkg/haCMTOTkg/ha   QTILEmm TNO3kg/ha LNO3kg/ha  GW_Q_Dmm LATQCNTmm TVAPkg/ha
FRSE    1 000010001    1    0    1.87315E-01   576.600     0.000     0.000     0.000   117.423    87.662    91.567    96.092    11.112     5.690     0.285     2.348     0.000     0.000   960.474  2000.523   162.762   162.762     0.000   295.756     0.000   458.652    84.666    26.316    28.503    24.129    25.506    15.425    10.673     8.094     0.000     0.000     0.000     0.000     0.000     0.000     0.000     0.000     0.000     0.000     0.011     1.095    -0.823     0.002     0.187     0.171     0.290     0.000     0.000     0.000    24.982     3.052     2.445     0.005     0.427     0.288     0.000     0.009     0.000     0.000     0.000     0.000     0.000     0.000     0.000     0.000 .00000E+00 .00000E+00 0.240E-04 0.404E+04 0.000E+00 0.000E+00 0.000E+00 0.000E+00 0.000E+00 0.427E+00     0.134   295.756     0.000
FRSE    2 000020001    2    0    1.16673E+00   576.600     0.000     0.000     0.000   117.421    87.656    91.561    96.092    11.040     5.647     0.282     2.348     0.000     0.000   959.134  2000.520   162.742   162.742     0.000   295.843     0.000   458.717    84.665    26.316    28.503    24.129    25.506    15.425    11.565     8.121     0.000     0.000     0.000     0.000     0.000     0.000     0.000     0.000     0.000     0.000     0.010     1.094    -0.823     0.002     0.187     0.172     0.291     0.000     0.000     0.000    25.538     3.120     2.502     0.005     0.427     0.285     0.000     0.009     0.000     0.000     0.000     0.000     0.000     0.000     0.000     0.000 .00000E+00 .00000E+00 0.240E-04 0.404E+04 0.000E+00 0.000E+00 0.000E+00 0.000E+00 0.000E+00 0.427E+00     0.133   295.843     0.000
FRSE    3 000030001    3    0    1.37655E-01   576.600     0.000     0.000     0.000   117.431    87.371    91.220    96.093     6.721     3.164     0.158     2.349     0.000     0.000   887.494  2000.260   161.714   161.714     0.000   300.850     0.000   462.626    84.601    26.316    28.503    24.129    25.505    15.425    15.598    12.290     0.000     0.000     0.000     0.000     0.000     0.000     0.000     0.000     0.000     0.000     0.009     1.094    -0.816     0.002     0.187     0.182     0.297     0.000     0.000     0.000    28.097     3.432     2.761     0.005     0.419     0.130     0.000     0.008     0.000     0.000     0.000     0.000     0.000     0.000     0.000     0.000 .00000E+00 .00000E+00 0.232E-04 0.404E+04 0.000E+00 0.000E+00 0.000E+00 0.000E+00 0.000E+00 0.419E+00     0.063   300.850     0.000
FRSD    4 000030002    3    0    1.29755E-02   576.600     0.000     0.000     0.000   117.431    82.666    90.676    96.160     3.515     1.157     0.058     2.349     0.000     0.000   801.935  2000.070   224.472   224.472     0.000   246.753     0.000   471.237    89.093    26.316    28.503    24.129    25.313    15.425     0.244     0.309     0.000     0.000     0.000     0.000     0.000     0.000     0.000     0.000     0.000     0.000     0.336     1.119    -0.775     0.289     0.191     0.493     0.581     0.000     0.000     0.000     1.390     0.182     0.148     0.038     0.368     0.011     0.000     0.045     0.000     0.000     0.000     0.000     0.000     0.000     0.000     0.000 .00000E+00 .00000E+00 0.316E-04 0.404E+04 0.000E+00 0.000E+00 0.000E+00 0.000E+00 0.000E+00 0.368E+00     0.012   246.753     0.000
FRSE    5 000040001    4    0    1.30883E-01   576.600     0.000     0.000     0.000   117.450    87.376    91.223    96.094     7.620     3.599     0.180     2.349     0.000     0.000   899.848  2000.294   161.726   161.726     0.000   299.976     0.000   461.773    84.602    26.316    28.503    24.129    25.505    15.425    11.272     9.094     0.000     0.000     0.000     0.000     0.000     0.000     0.000     0.000     0.000     0.000     0.011     1.097    -0.817     0.002     0.187     0.180     0.296     0.000     0.000     0.000    25.745     3.145     2.520     0.005     0.414     0.153     0.000     0.009     0.000     0.000     0.000     0.000     0.000     0.000     0.000     0.000 .00000E+00 .00000E+00 0.230E-04 0.404E+04 0.000E+00 0.000E+00 0.000E+00 0.000E+00 0.000E+00 0.414E+00     0.072   299.976     0.000
FRSE    6 000050001    5    0    1.10261E-03   576.600     0.000     0.000     0.000   117.424    90.114    92.938    96.089   311.163   201.369    10.068     2.348     0.000     0.000  1083.746  2023.703   165.508   165.051     0.000     6.225   163.867   341.939    84.918    26.316    28.503    24.129    25.523    15.425     0.354     0.664     0.000     0.000     0.000     0.000     0.000     0.000     0.000     0.000     0.000     0.000     0.008     1.140    -0.905     0.002     0.195    -0.270    -0.172     0.000     0.000     0.000     4.964     0.606     0.439     0.003     0.006     1.767     0.050     0.033     0.000     0.000     0.000     0.000     0.000     0.000     0.000     0.000 .00000E+00 .00000E+00 0.323E-04 0.404E+04 0.000E+00 0.000E+00 0.000E+00 0.000E+00 0.000E+00 0.573E-02     6.796     6.225     0.000
FRSE    7 000050002    5    0    1.35808E-01   576.600     0.000     0.000     0.000   117.424    87.369    91.221    96.092     6.688     3.149     0.157     2.348     0.000     0.000   886.819  2000.257   161.715   161.715     0.000   300.882     0.000   462.660    84.602    26.316    28.503    24.129    25.505    15.425    15.795    12.515     0.000     0.000     0.000     0.000     0.000     0.000     0.000     0.000     0.000     0.000     0.009     1.094    -0.816     0.002     0.187     0.182     0.297     0.000     0.000     0.000    28.188     3.443     2.771     0.005     0.419     0.129     0.000     0.008     0.000     0.000     0.000     0.000     0.000     0.000     0.000     0.000 .00000E+00 .00000E+00 0.232E-04 0.404E+04 0.000E+00 0.000E+00 0.000E+00 0.000E+00 0.000E+00 0.419E+00     0.062   300.882     0.000
FRSD    8 000050003    5    0    1.25240E-01   576.600     0.000     0.000     0.000   117.424    82.671    90.674    96.160     3.514     1.156     0.058     2.348     0.000     0.000   801.912  2000.069   224.467   224.467     0.000   246.750     0.000   471.229    89.093    26.316    28.503    24.129    25.313    15.425     0.316     0.311     0.000     0.000     0.000     0.000     0.000     0.000     0.000     0.000     0.000     0.000     0.334     1.117    -0.774     0.288     0.191     0.493     0.586     0.000     0.000     0.000     1.702     0.224     0.183     0.037     0.366     0.011     0.000     0.044     0.000     0.000     0.000     0.000     0.000     0.000     0.000     0.000 .00000E+00 .00000E+00 0.317E-04 0.404E+04 0.000E+00 0.000E+00 0.000E+00 0.000E+00 0.000E+00 0.366E+00     0.012   246.750     0.000
FRSE    9 000060001    6    0    1.10260E-03   576.600     0.000     0.000     0.000   117.451    90.125    92.964    96.141   318.944   206.549    10.327     2.349     0.000     0.000  1086.726  2024.326   165.581   149.790     0.000     0.016   168.156   324.939    84.922    26.316    28.503    24.129    25.523    15.425     0.000     0.104     0.000     0.000     0.000     0.000     0.000     0.000     0.000     0.000     0.000     0.000     0.009     1.152    -0.914     0.002     0.197    -0.293    -0.194     0.000     0.000     0.000     0.000     0.000     0.000     0.003     0.000     1.804     0.052     0.038     0.000     0.000     0.000     0.000     0.000     0.000     0.000     0.000 .00000E+00 .00000E+00 0.336E-04 0.404E+04 0.000E+00 0.000E+00 0.000E+00 0.000E+00 0.000E+00 0.188E-04     6.977     0.016     0.000
FRSE   10 000060002    6    0    1.10260E-03   576.600     0.000     0.000     0.000   117.451    90.123    92.952    96.119   316.014   204.597    10.230     2.349     0.000     0.000  1085.633  2024.081   165.549   164.225     0.000     2.274   166.542   339.949    84.920    26.316    28.503    24.129    25.523    15.425     0.142     0.324     0.000     0.000     0.000     0.000     0.000     0.000     0.000     0.000     0.000     0.000     0.009     1.147    -0.910     0.002     0.196    -0.283    -0.186     0.000     0.000     0.000     2.448     0.299     0.214     0.003     0.002     1.788     0.052     0.037     0.000     0.000     0.000     0.000     0.000     0.000     0.000     0.000 .00000E+00 .00000E+00 0.320E-04 0.404E+04 0.000E+00 0.000E+00 0.000E+00 0.000E+00 0.000E+00 0.213E-02     6.909     2.274     0.000
FRSE   11 000060003    6    0    1.23393E-01   576.600     0.000     0.000     0.000   117.451    87.375    91.219    96.094     6.676     3.144     0.157     2.349     0.000     0.000   886.736  2000.255   161.709   161.709     0.000   300.887     0.000   462.658    84.601    26.316    28.503    24.129    25.505    15.425    15.095    12.588     0.000     0.000     0.000     0.000     0.000     0.000     0.000     0.000     0.000     0.000     0.009     1.094    -0.816     0.002     0.187     0.182     0.297     0.000     0.000     0.000    27.849     3.401     2.736     0.005     0.419     0.129     0.000     0.008     0.000     0.000     0.000     0.000     0.000     0.000     0.000     0.000 .00000E+00 .00000E+00 0.230E-04 0.404E+04 0.000E+00 0.000E+00 0.000E+00 0.000E+00 0.000E+00 0.419E+00     0.062   300.887     0.000
FRSD   12 000060004    6    0    1.42272E-01   576.600     0.000     0.000     0.000   117.451    82.678    90.674    96.162     3.514     1.156     0.058     2.349     0.000     0.000   801.997  2000.069   224.467   224.467     0.000   246.742     0.000   471.221    89.093    26.316    28.503    24.129    25.313    15.425     0.336     0.311     0.000     0.000     0.000     0.000     0.000     0.000     0.000     0.000     0.000     0.000     0.333     1.116    -0.774     0.288     0.191     0.493     0.588     0.000     0.000     0.000     1.787     0.235     0.192     0.037     0.366     0.011     0.000     0.044     0.000     0.000     0.000     0.000     0.000     0.000     0.000     0.000 .00000E+00 .00000E+00 0.314E-04 0.404E+04 0.000E+00 0.000E+00 0.000E+00 0.000E+00 0.000E+00 0.366E+00     0.012   246.742     0.000
FRSE   13 000070001    7    0    1.10260E-03   576.600     0.000     0.000     0.000   117.395    90.110    92.966    96.136   318.972   206.562    10.328     2.348     0.000     0.000  1086.720  2024.320   165.588   149.797     0.000     0.016   168.154   324.942    84.923    26.316    28.503    24.129    25.523    15.425     0.000     0.104     0.000     0.000     0.000     0.000     0.000     0.000     0.000     0.000     0.000     0.000     0.009     1.152    -0.914     0.002     0.197    -0.293    -0.194     0.000     0.000     0.000     0.000     0.000     0.000     0.003     0.000     1.804     0.052     0.038     0.000     0.000     0.000     0.000     0.000     0.000     0.000     0.000 .00000E+00 .00000E+00 0.342E-04 0.404E+04 0.000E+00 0.000E+00 0.000E+00 0.000E+00 0.000E+00 0.187E-04     6.975     0.016     0.000
FRSE   14 000070002    7    0    1.55815E-01   576.600     0.000     0.000     0.000   117.395    87.667    91.583    96.090    11.260     5.779     0.289     2.348     0.000     0.000   963.018  2000.532   162.806   162.806     0.000   295.589     0.000   458.532    84.669    26.316    28.503    24.129    25.507    15.425    10.047     6.934     0.000     0.000     0.000     0.000     0.000     0.000     0.000     0.000     0.000     0.000     0.011     1.096    -0.824     0.002     0.187     0.171     0.290     0.000     0.000     0.000    24.573     3.002     2.403     0.005     0.428     0.294     0.000     0.009     0.000     0.000     0.000     0.000     0.000     0.000     0.000     0.000 .00000E+00 .00000E+00 0.243E-04 0.404E+04 0.000E+00 0.000E+00 0.000E+00 0.000E+00 0.000E+00 0.428E+00     0.137   295.589     0.000
FRSE   15 000080001    8    0    1.10260E-03   576.600     0.000     0.000     0.000   117.453    90.125    92.964    96.141   318.943   206.548    10.327     2.349     0.000     0.000  1086.716  2024.324   165.581   149.790     0.000     0.016   168.156   324.939    84.922    26.316    28.503    24.129    25.523    15.425     0.000     0.104     0.000     0.000     0.000     0.000     0.000     0.000     0.000     0.000     0.000     0.000     0.009     1.152    -0.914     0.002     0.197    -0.293    -0.194     0.000     0.000     0.000     0.000     0.000     0.000     0.003     0.000     1.804     0.052     0.038     0.000     0.000     0.000     0.000     0.000     0.000     0.000     0.000 .00000E+00 .00000E+00 0.336E-04 0.404E+04 0.000E+00 0.000E+00 0.000E+00 0.000E+00 0.000E+00 0.188E-04     6.977     0.016     0.000
FRSE   16 000080002    8    0    1.30781E-03   576.600     0.000     0.000     0.000   117.453    90.122    92.940    96.095   312.817   202.469    10.123     2.349     0.000     0.000  1084.397  2023.834   165.514   164.937     0.000     4.906   164.781   341.460    84.918    26.316    28.503    24.129    25.523    15.425     0.306     0.550     0.000     0.000     0.000     0.000     0.000     0.000     0.000     0.000     0.000     0.000     0.008     1.141    -0.906     0.002     0.195    -0.273    -0.175     0.000     0.000     0.000     4.394     0.536     0.388     0.003     0.005     1.773     0.051     0.034     0.000     0.000     0.000     0.000     0.000     0.000     0.000     0.000 .00000E+00 .00000E+00 0.320E-04 0.404E+04 0.000E+00 0.000E+00 0.000E+00 0.000E+00 0.000E+00 0.452E-02     6.835     4.906     0.000
FRSE   17 000080003    8    0    1.64538E-01   576.600     0.000     0.000     0.000   117.453    88.101    92.004    96.094    17.905     9.837     0.492     2.349     0.000     0.000  1003.176  2000.988   163.786   163.786     0.000   288.448     4.242   456.740    84.748    26.316    28.503    24.129    25.509    15.425     8.072    11.088     0.000     0.000     0.000     0.000     0.000     0.000     0.000     0.000     0.000     0.000     0.012     1.096    -0.832     0.003     0.187     0.155     0.278     0.000     0.000     0.000    22.782     2.783     2.222     0.004     0.440     0.546     0.000     0.010     0.000     0.000     0.000     0.000     0.000     0.000     0.000     0.000 .00000E+00 .00000E+00 0.252E-04 0.404E+04 0.000E+00 0.000E+00 0.000E+00 0.000E+00 0.000E+00 0.440E+00     0.264   288.448     0.000
FRSE   18 000090001    9    0    1.48839E-01   576.600     0.000     0.000     0.000   117.404    87.366    91.226    96.091     7.579     3.576     0.179     2.348     0.000     0.000   899.081  2000.292   161.733   161.733     0.000   300.030     0.000   461.834    84.603    26.316    28.503    24.129    25.505    15.425    11.973     9.148     0.000     0.000     0.000     0.000     0.000     0.000     0.000     0.000     0.000     0.000     0.010     1.096    -0.817     0.002     0.187     0.180     0.297     0.000     0.000     0.000    26.173     3.197     2.564     0.005     0.413     0.152     0.000     0.009     0.000     0.000     0.000     0.000     0.000     0.000     0.000     0.000 .00000E+00 .00000E+00 0.234E-04 0.404E+04 0.000E+00 0.000E+00 0.000E+00 0.000E+00 0.000E+00 0.413E+00     0.071   300.030     0.000
FRSE   19 000100001   10    0    1.10260E-03   576.600     0.000     0.000     0.000   117.398    90.107    92.938    96.087   310.899   201.191    10.060     2.348     0.000     0.000  1083.641  2023.670   165.511   165.069     0.000     6.444   163.714   342.016    84.918    26.316    28.503    24.129    25.523    15.425     0.381     0.827     0.000     0.000     0.000     0.000     0.000     0.000     0.000     0.000     0.000     0.000     0.008     1.139    -0.904     0.002     0.194    -0.269    -0.170     0.000     0.000     0.000     5.243     0.640     0.464     0.003     0.006     1.766     0.050     0.033     0.000     0.000     0.000     0.000     0.000     0.000     0.000     0.000 .00000E+00 .00000E+00 0.326E-04 0.404E+04 0.000E+00 0.000E+00 0.000E+00 0.000E+00 0.000E+00 0.593E-02     6.789     6.444     0.000
FRSE   20 000100002   10    0    1.53558E-01   576.600     0.000     0.000     0.000   117.398    87.365    91.229    96.090     7.709     3.645     0.182     2.348     0.000     0.000   900.727  2000.298   161.745   161.745     0.000   299.896     0.000   461.714    84.603    26.316    28.503    24.129    25.505    15.425    11.902     8.992     0.000     0.000     0.000     0.000     0.000     0.000     0.000     0.000     0.000     0.000     0.010     1.096    -0.817     0.002     0.187     0.180     0.297     0.000     0.000     0.000    26.121     3.191     2.559     0.005     0.413     0.156     0.000     0.009     0.000     0.000     0.000     0.000     0.000     0.000     0.000     0.000 .00000E+00 .00000E+00 0.235E-04 0.404E+04 0.000E+00 0.000E+00 0.000E+00 0.000E+00 0.000E+00 0.413E+00     0.073   299.896     0.000
FRSE   21 000110001   11    0    1.62895E-01   576.600     0.000     0.000     0.000   117.397    87.364    91.223    96.090     6.890     3.243     0.162     2.348     0.000     0.000   890.624  2000.264   161.722   161.722     0.000   300.698     0.000   462.484    84.602    26.316    28.503    24.129    25.505    15.425    15.062    11.160     0.000     0.000     0.000     0.000     0.000     0.000     0.000     0.000     0.000     0.000     0.009     1.094    -0.816     0.002     0.187     0.182     0.297     0.000     0.000     0.000    27.838     3.400     2.735     0.005     0.418     0.133     0.000     0.008     0.000     0.000     0.000     0.000     0.000     0.000     0.000     0.000 .00000E+00 .00000E+00 0.235E-04 0.404E+04 0.000E+00 0.000E+00 0.000E+00 0.000E+00 0.000E+00 0.418E+00     0.064   300.698     0.000
FRSE   22 000120001   12    0    1.12004E+00   576.600     0.000     0.000     0.000   117.399    87.364    91.223    96.090     7.206     3.392     0.170     2.348     0.000     0.000   894.988  2000.276   161.721   161.721     0.000   300.399     0.000   462.187    84.602    26.316    28.503    24.129    25.505    15.425    14.377     9.866     0.000     0.000     0.000     0.000     0.000     0.000     0.000     0.000     0.000     0.000     0.009     1.094    -0.816     0.002     0.187     0.182     0.297     0.000     0.000     0.000    27.500     3.359     2.700     0.005     0.415     0.140     0.000     0.009     0.000     0.000     0.000     0.000     0.000     0.000     0.000     0.000 .00000E+00 .00000E+00 0.235E-04 0.404E+04 0.000E+00 0.000E+00 0.000E+00 0.000E+00 0.000E+00 0.415E+00     0.067   300.399     0.000
FRSE   23 000130001   13    0    1.11502E+00   576.600     0.000     0.000     0.000   117.366    87.358    91.226    96.088     6.720     3.162     0.158     2.347     0.000     0.000   887.120  2000.258   161.729   161.729     0.000   300.867     0.000   462.658    84.603    26.316    28.503    24.129    25.505    15.425    17.874    12.319     0.000     0.000     0.000     0.000     0.000     0.000     0.000     0.000     0.000     0.000     0.008     1.093    -0.815     0.002     0.187     0.183     0.297     0.000     0.000     0.000    29.137     3.558     2.868     0.005     0.418     0.130     0.000     0.008     0.000     0.000     0.000     0.000     0.000     0.000     0.000     0.000 .00000E+00 .00000E+00 0.238E-04 0.404E+04 0.000E+00 0.000E+00 0.000E+00 0.000E+00 0.000E+00 0.418E+00     0.062   300.867     0.000
FRSE   24 000140001   14    0    1.37655E-01   576.600     0.000     0.000     0.000   117.357    87.356    91.227    96.087     6.732     3.167     0.158     2.347     0.000     0.000   887.291  2000.256   161.731   161.731     0.000   300.859     0.000   462.653    84.603    26.316    28.503    24.129    25.505    15.425    15.539    12.242     0.000     0.000     0.000     0.000     0.000     0.000     0.000     0.000     0.000     0.000     0.009     1.094    -0.816     0.002     0.187     0.182     0.297     0.000     0.000     0.000    28.069     3.428     2.759     0.005     0.419     0.130     0.000     0.008     0.000     0.000     0.000     0.000     0.000     0.000     0.000     0.000 .00000E+00 .00000E+00 0.238E-04 0.404E+04 0.000E+00 0.000E+00 0.000E+00 0.000E+00 0.000E+00 0.419E+00     0.062   300.859     0.000
SWCH   25 000150001   15    0    1.30780E-03   576.600     0.000     0.000     0.000   117.338    81.241    92.847    96.192    24.348    13.632     0.682     2.347     0.000     0.000  1004.653  2001.100   182.482   182.482     0.000   273.525     3.375   459.652    86.242    26.316    28.503    24.129    25.250    15.425     0.043     0.074     0.000     0.000     0.000     0.000     0.000     0.000     0.000     0.000     0.000     0.000     4.491     1.347    -0.490     1.211     0.231     1.194     0.972     0.000     0.000     0.000     0.695     0.089     0.048     0.173     1.562     0.412     0.000     0.077     0.000     0.000     0.000     0.000     0.000     0.000     0.000     0.000 .00000E+00 .00000E+00 0.885E-05 0.404E+04 0.000E+00 0.000E+00 0.000E+00 0.000E+00 0.000E+00 0.156E+01     0.270   273.525     0.000
FRSE   26 000150002   15    0    1.49249E-02   576.600     0.000     0.000     0.000   117.338    89.650   160.538   164.686    33.319    19.098     0.955     2.347     0.000     0.000  1003.921  2001.999    68.305    68.305     0.000   363.094    14.141   446.086    73.643    26.316    28.503    24.129    24.874    15.425     2.620     7.519     0.000     0.000     0.000     0.000     0.000     0.000     0.000     0.000     0.000     0.000     0.036     1.671    -1.277     0.004     0.286     0.233     0.293     0.000     0.000     0.000    12.904     1.572     1.215     0.002     0.499     1.232     0.002     0.007     0.000     0.000     0.000     0.000     0.000     0.000     0.000     0.000 .00000E+00 .00000E+00 0.867E-05 0.444E+04 0.000E+00 0.000E+00 0.000E+00 0.000E+00 0.000E+00 0.499E+00     0.545   363.094     0.000
FRSE   27 000150003   15    0    1.43093E-01   576.600     0.000     0.000     0.000   117.338    87.352    91.228    96.085     6.006     2.825     0.141     2.347     0.000     0.000   872.982  2000.229   161.735   161.735     0.000   301.551     0.000   463.342    84.603    26.316    28.503    24.129    25.505    15.425    22.567    17.489     0.000     0.000     0.000     0.000     0.000     0.000     0.000     0.000     0.000     0.000     0.007     1.091    -0.814     0.001     0.186     0.184     0.296     0.000     0.000     0.000    30.994     3.784     3.057     0.005     0.421     0.116     0.000     0.008     0.000     0.000     0.000     0.000     0.000     0.000     0.000     0.000 .00000E+00 .00000E+00 0.240E-04 0.404E+04 0.000E+00 0.000E+00 0.000E+00 0.000E+00 0.000E+00 0.421E+00     0.056   301.551     0.000
FRSE   28 000150004   15    0    1.10260E-03   576.600     0.000     0.000     0.000   117.338    91.339   161.563   164.978   305.802   197.101     9.855     2.347     0.000     0.000  1081.845  2023.054   170.105   169.713     0.000     4.867   159.875   341.049    85.285    26.316    28.503    24.129    24.883    15.425     0.204     0.545     0.000     0.000     0.000     0.000     0.000     0.000     0.000     0.000     0.000     0.000     0.019     1.699    -1.338     0.004     0.290    -0.073    -0.008     0.000     0.000     0.000     3.143     0.384     0.261     0.004     0.006     3.219     0.084     0.044     0.000     0.000     0.000     0.000     0.000     0.000     0.000     0.000 .00000E+00 .00000E+00 0.387E-04 0.444E+04 0.000E+00 0.000E+00 0.000E+00 0.000E+00 0.000E+00 0.598E-02     6.595     4.867     0.000
SWCH   29 000160001   16    0    1.71822E-03   576.600     0.000     0.000     0.000   117.336    83.280   161.582   164.787   106.273    68.212     3.411     2.347     0.000     0.000  1033.200  2007.050    91.288    91.288     0.000   281.361    54.589   429.181    77.175    26.316    28.503    24.129    24.435    15.425     0.011     0.022     0.000     0.000     0.000     0.000     0.000     0.000     0.000     0.000     0.000     0.000     4.418     1.881    -0.949     1.173     0.323     1.214     1.047     0.000     0.000     0.000     0.170     0.022     0.012     0.061     1.245     2.254     0.013     0.046     0.000     0.000     0.000     0.000     0.000     0.000     0.000     0.000 .00000E+00 .00000E+00 0.852E-05 0.444E+04 0.000E+00 0.000E+00 0.000E+00 0.000E+00 0.000E+00 0.125E+01     1.943   281.361     0.000
FRSE   30 000160002   16    0    1.26779E-01   576.600     0.000     0.000     0.000   117.336    89.747   160.652   164.686    38.427    22.306     1.115     2.347     0.000     0.000  1005.512  2002.370    68.341    68.341     0.000   358.386    16.767   444.144    73.661    26.316    28.503    24.129    24.875    15.425     2.905     8.111     0.000     0.000     0.000     0.000     0.000     0.000     0.000     0.000     0.000     0.000     0.035     1.669    -1.278     0.004     0.285     0.228     0.293     0.000     0.000     0.000    13.304     1.620     1.254     0.002     0.482     1.285     0.003     0.007     0.000     0.000     0.000     0.000     0.000     0.000     0.000     0.000 .00000E+00 .00000E+00 0.871E-05 0.444E+04 0.000E+00 0.000E+00 0.000E+00 0.000E+00 0.000E+00 0.482E+00     0.650   358.386     0.000
FRSE   31 000160003   16    0    1.20520E-03   576.600     0.000     0.000     0.000   117.336    90.095    92.968    96.131   318.990   206.577    10.329     2.347     0.000     0.000  1086.729  2024.319   165.594   149.802     0.000     0.016   168.153   324.945    84.923    26.316    28.503    24.129    25.523    15.425     0.023     0.104     0.000     0.000     0.000     0.000     0.000     0.000     0.000     0.000     0.000     0.000     0.009     1.152    -0.914     0.002     0.197    -0.292    -0.193     0.000     0.000     0.000     0.514     0.063     0.044     0.003     0.000     1.803     0.052     0.037     0.000     0.000     0.000     0.000     0.000     0.000     0.000     0.000 .00000E+00 .00000E+00 0.349E-04 0.404E+04 0.000E+00 0.000E+00 0.000E+00 0.000E+00 0.000E+00 0.187E-04     6.974     0.016     0.000
FRSE   32 000160004   16    0    1.62895E-01   576.600     0.000     0.000     0.000   117.336    87.352    91.229    96.085     5.872     2.763     0.138     2.347     0.000     0.000   870.363  2000.229   161.736   161.736     0.000   301.678     0.000   463.468    84.603    26.316    28.503    24.129    25.505    15.425    24.969    18.488     0.000     0.000     0.000     0.000     0.000     0.000     0.000     0.000     0.000     0.000     0.006     1.090    -0.814     0.001     0.186     0.184     0.295     0.000     0.000     0.000    31.842     3.888     3.143     0.004     0.422     0.113     0.000     0.007     0.000     0.000     0.000     0.000     0.000     0.000     0.000     0.000 .00000E+00 .00000E+00 0.240E-04 0.404E+04 0.000E+00 0.000E+00 0.000E+00 0.000E+00 0.000E+00 0.422E+00     0.054   301.678     0.000
FRSE   33 000160005   16    0    1.30781E-03   576.600     0.000     0.000     0.000   117.336    91.002   161.268   164.686   184.249   116.832     5.842     2.347     0.000     0.000  1040.144  2013.452   169.680   169.680     0.000   117.637    93.587   384.728    85.259    26.316    28.503    24.129    24.879    15.425     1.331     2.211     0.000     0.000     0.000     0.000     0.000     0.000     0.000     0.000     0.000     0.000     0.021     1.674    -1.315     0.004     0.286     0.063     0.127     0.000     0.000     0.000    11.845     1.447     1.067     0.004     0.163     2.836     0.042     0.025     0.000     0.000     0.000     0.000     0.000     0.000     0.000     0.000 .00000E+00 .00000E+00 0.385E-04 0.444E+04 0.000E+00 0.000E+00 0.000E+00 0.000E+00 0.000E+00 0.163E+00     3.825   117.637     0.000
FRSE   34 000170001   17    0    1.53148E-01   576.600     0.000     0.000     0.000   117.427    87.370    91.221    96.092     7.153     3.367     0.168     2.349     0.000     0.000   894.608  2000.276   161.715   161.715     0.000   300.442     0.000   462.224    84.602    26.316    28.503    24.129    25.505    15.425    13.215     9.991     0.000     0.000     0.000     0.000     0.000     0.000     0.000     0.000     0.000     0.000     0.010     1.095    -0.816     0.002     0.187     0.181     0.297     0.000     0.000     0.000    26.882     3.283     2.637     0.005     0.416     0.139     0.000     0.009     0.000     0.000     0.000     0.000     0.000     0.000     0.000     0.000 .00000E+00 .00000E+00 0.232E-04 0.404E+04 0.000E+00 0.000E+00 0.000E+00 0.000E+00 0.000E+00 0.416E+00     0.067   300.442     0.000
FRSE   35 000180001   18    0    1.11290E-02   576.600     0.000     0.000     0.000   117.355    87.935    91.885    96.087    15.207     8.175     0.409     2.347     0.000     0.000  1002.336  2000.802   163.516   163.516     0.000   291.257     1.856   456.840    84.726    26.316    28.503    24.129    25.508    15.425     5.424     8.352     0.000     0.000     0.000     0.000     0.000     0.000     0.000     0.000     0.000     0.000     0.014     1.102    -0.833     0.003     0.188     0.158     0.276     0.000     0.000     0.000    20.651     2.523     2.000     0.005     0.441     0.449     0.000     0.011     0.000     0.000     0.000     0.000     0.000     0.000     0.000     0.000 .00000E+00 .00000E+00 0.256E-04 0.404E+04 0.000E+00 0.000E+00 0.000E+00 0.000E+00 0.000E+00 0.441E+00     0.211   291.257     0.000
FRSE   36 000190001   19    0    1.10260E-03   576.600     0.000     0.000     0.000   117.371    90.104    92.967    96.134   318.979   206.568    10.328     2.347     0.000     0.000  1086.727  2024.320   165.590   149.799     0.000     0.016   168.154   324.944    84.923    26.316    28.503    24.129    25.523    15.425     0.000     0.104     0.000     0.000     0.000     0.000     0.000     0.000     0.000     0.000     0.000     0.000     0.009     1.152    -0.914     0.002     0.197    -0.293    -0.194     0.000     0.000     0.000     0.000     0.000     0.000     0.003     0.000     1.804     0.052     0.038     0.000     0.000     0.000     0.000     0.000     0.000     0.000     0.000 .00000E+00 .00000E+00 0.345E-04 0.404E+04 0.000E+00 0.000E+00 0.000E+00 0.000E+00 0.000E+00 0.187E-04     6.975     0.016     0.000
FRSE   37 000190002   19    0    1.50172E-01   576.600     0.000     0.000     0.000   117.371    87.359    91.226    96.088     6.655     3.132     0.157     2.347     0.000     0.000   885.873  2000.253   161.728   161.728     0.000   300.928     0.000   462.717    84.602    26.316    28.503    24.129    25.505    15.425    16.772    12.765     0.000     0.000     0.000     0.000     0.000     0.000     0.000     0.000     0.000     0.000     0.008     1.093    -0.815     0.002     0.187     0.182     0.297     0.000     0.000     0.000    28.644     3.498     2.817     0.005     0.419     0.128     0.000     0.008     0.000     0.000     0.000     0.000     0.000     0.000     0.000     0.000 .00000E+00 .00000E+00 0.237E-04 0.404E+04 0.000E+00 0.000E+00 0.000E+00 0.000E+00 0.000E+00 0.419E+00     0.062   300.928     0.000
FRSE   38 000200001   20    0    1.27190E-01   576.600     0.000     0.000     0.000   117.361    87.356    91.227    96.087     6.954     3.272     0.164     2.347     0.000     0.000   891.669  2000.269   161.730   161.730     0.000   300.647     0.000   462.442    84.603    26.316    28.503    24.129    25.505    15.425    13.128    10.753     0.000     0.000     0.000     0.000     0.000     0.000     0.000     0.000     0.000     0.000     0.010     1.095    -0.816     0.002     0.187     0.181     0.297     0.000     0.000     0.000    26.834     3.278     2.632     0.005     0.419     0.134     0.000     0.009     0.000     0.000     0.000     0.000     0.000     0.000     0.000     0.000 .00000E+00 .00000E+00 0.238E-04 0.404E+04 0.000E+00 0.000E+00 0.000E+00 0.000E+00 0.000E+00 0.419E+00     0.064   300.647     0.000
FRSE   39 000210001   21    0    1.13749E+00   576.600     0.000     0.000     0.000   117.404    87.778    91.698    96.091    12.751     6.683     0.334     2.348     0.000     0.000   987.835  2000.636   163.077   163.077     0.000   293.943     0.000   457.185    84.691    26.316    28.503    24.129    25.507    15.425    10.548    11.934     0.000     0.000     0.000     0.000     0.000     0.000     0.000     0.000     0.000     0.000     0.011     1.094    -0.826     0.002     0.187     0.167     0.288     0.000     0.000     0.000    24.812     3.031     2.428     0.004     0.432     0.353     0.000     0.009     0.000     0.000     0.000     0.000     0.000     0.000     0.000     0.000 .00000E+00 .00000E+00 0.245E-04 0.404E+04 0.000E+00 0.000E+00 0.000E+00 0.000E+00 0.000E+00 0.432E+00     0.165   293.943     0.000
FRSE   40 000220001   22    0    1.16827E-01   576.600     0.000     0.000     0.000   117.333    87.350    91.229    96.085     6.999     3.292     0.165     2.347     0.000     0.000   892.379  2000.268   161.737   161.737     0.000   300.613     0.000   462.414    84.603    26.316    28.503    24.129    25.505    15.425    12.073    10.474     0.000     0.000     0.000     0.000     0.000     0.000     0.000     0.000     0.000     0.000     0.010     1.096    -0.817     0.002     0.187     0.181     0.297     0.000     0.000     0.000    26.238     3.205     2.571     0.005     0.419     0.135     0.000     0.009     0.000     0.000     0.000     0.000     0.000     0.000     0.000     0.000 .00000E+00 .00000E+00 0.241E-04 0.404E+04 0.000E+00 0.000E+00 0.000E+00 0.000E+00 0.000E+00 0.419E+00     0.065   300.613     0.000
FRSE   41 000230001   23    0    1.20521E-03   576.600     0.000     0.000     0.000   117.372    90.104    92.966    96.133   318.792   206.440    10.322     2.347     0.000     0.000  1086.659  2024.304   165.589   159.424     0.000     0.163   168.048   334.606    84.923    26.316    28.503    24.129    25.523    15.425     0.039     0.095     0.000     0.000     0.000     0.000     0.000     0.000     0.000     0.000     0.000     0.000     0.009     1.151    -0.913     0.002     0.197    -0.291    -0.193     0.000     0.000     0.000     0.784     0.096     0.068     0.003     0.000     1.802     0.052     0.039     0.000     0.000     0.000     0.000     0.000     0.000     0.000     0.000 .00000E+00 .00000E+00 0.332E-04 0.404E+04 0.000E+00 0.000E+00 0.000E+00 0.000E+00 0.000E+00 0.154E-03     6.970     0.163     0.000
FRSE   42 000230002   23    0    1.32833E-01   576.600     0.000     0.000     0.000   117.372    87.690    91.614    96.088    11.637     6.006     0.300     2.347     0.000     0.000   969.754  2000.563   162.880   162.880     0.000   295.181     0.000   458.205    84.675    26.316    28.503    24.129    25.507    15.425     9.288     7.181     0.000     0.000     0.000     0.000     0.000     0.000     0.000     0.000     0.000     0.000     0.012     1.096    -0.825     0.003     0.187     0.169     0.289     0.000     0.000     0.000    24.031     2.936     2.347     0.005     0.430     0.309     0.000     0.009     0.000     0.000     0.000     0.000     0.000     0.000     0.000     0.000 .00000E+00 .00000E+00 0.246E-04 0.404E+04 0.000E+00 0.000E+00 0.000E+00 0.000E+00 0.000E+00 0.430E+00     0.144   295.181     0.000
FRSE   43 000240001   24    0    1.12518E-01   576.600     0.000     0.000     0.000   117.357    87.410    91.294    96.087     8.320     4.006     0.200     2.347     0.000     0.000   910.702  2000.329   161.934   161.934     0.000   299.170     0.000   461.186    84.615    26.316    28.503    24.129    25.505    15.425     9.641     5.829     0.000     0.000     0.000     0.000     0.000     0.000     0.000     0.000     0.000     0.000     0.012     1.098    -0.819     0.002     0.188     0.178     0.294     0.000     0.000     0.000    24.596     3.005     2.403     0.005     0.417     0.179     0.000     0.009     0.000     0.000     0.000     0.000     0.000     0.000     0.000     0.000 .00000E+00 .00000E+00 0.240E-04 0.404E+04 0.000E+00 0.000E+00 0.000E+00 0.000E+00 0.000E+00 0.417E+00     0.083   299.170     0.000
FRSE   44 000250001   25    0    1.22060E-01   576.600     0.000     0.000     0.000   117.350    87.440    91.331    96.086     8.659     4.209     0.210     2.347     0.000     0.000   916.440  2000.364   162.042   162.042     0.000   298.756     0.000   460.887    84.622    26.316    28.503    24.129    25.505    15.425    10.143     4.189     0.000     0.000     0.000     0.000     0.000     0.000     0.000     0.000     0.000     0.000     0.011     1.097    -0.819     0.002     0.187     0.177     0.294     0.000     0.000     0.000    24.893     3.041     2.434     0.005     0.418     0.191     0.000     0.009     0.000     0.000     0.000     0.000     0.000     0.000     0.000     0.000 .00000E+00 .00000E+00 0.241E-04 0.404E+04 0.000E+00 0.000E+00 0.000E+00 0.000E+00 0.000E+00 0.418E+00     0.089   298.756     0.000
FRSE   45 000260001   26    0    1.22470E-01   576.600     0.000     0.000     0.000   117.343    87.353    91.228    96.086     6.780     3.190     0.159     2.347     0.000     0.000   888.160  2000.258   161.734   161.734     0.000   300.817     0.000   462.614    84.603    26.316    28.503    24.129    25.505    15.425    14.218    11.915     0.000     0.000     0.000     0.000     0.000     0.000     0.000     0.000     0.000     0.000     0.009     1.095    -0.816     0.002     0.187     0.182     0.297     0.000     0.000     0.000    27.412     3.348     2.691     0.005     0.419     0.131     0.000     0.009     0.000     0.000     0.000     0.000     0.000     0.000     0.000     0.000 .00000E+00 .00000E+00 0.240E-04 0.404E+04 0.000E+00 0.000E+00 0.000E+00 0.000E+00 0.000E+00 0.419E+00     0.063   300.817     0.000
FRSE   46 000270001   27    0    1.31089E-01   576.600     0.000     0.000     0.000   117.323    87.418    91.315    96.084     8.490     4.106     0.205     2.346     0.000     0.000   913.424  2000.347   161.995   161.995     0.000   298.971     0.000   461.051    84.619    26.316    28.503    24.129    25.505    15.425    10.663     4.227     0.000     0.000     0.000     0.000     0.000     0.000     0.000     0.000     0.000     0.000     0.011     1.097    -0.819     0.002     0.187     0.178     0.295     0.000     0.000     0.000    25.252     3.085     2.470     0.005     0.417     0.185     0.000     0.009     0.000     0.000     0.000     0.000     0.000     0.000     0.000     0.000 .00000E+00 .00000E+00 0.243E-04 0.404E+04 0.000E+00 0.000E+00 0.000E+00 0.000E+00 0.000E+00 0.417E+00     0.086   298.971     0.000
FRSE   47 000280001   28    0    1.92300E-03   576.600     0.000     0.000     0.000   117.307    88.205    92.111    96.083    20.988    11.739     0.587     2.346     0.000     0.000  1003.548  2001.198   163.985   163.985     0.000   285.479     5.268   455.054    84.767    26.316    28.503    24.129    25.509    15.425     4.429     8.245     0.000     0.000     0.000     0.000     0.000     0.000     0.000     0.000     0.000     0.000     0.014     1.103    -0.840     0.003     0.188     0.146     0.262     0.000     0.000     0.000    19.357     2.365     1.869     0.004     0.445     0.650     0.000     0.012     0.000     0.000     0.000     0.000     0.000     0.000     0.000     0.000 .00000E+00 .00000E+00 0.275E-04 0.404E+04 0.000E+00 0.000E+00 0.000E+00 0.000E+00 0.000E+00 0.445E+00     0.322   285.479     0.000
FRSE   48 000290001   29    0    1.71822E-03   576.600     0.000     0.000     0.000   117.317    91.352   161.477   164.831   392.255   252.447    12.622     2.346     0.000     0.000  1115.492  2029.829    68.809    68.787     0.000    17.250   206.778   301.378    73.790    26.316    28.503    24.129    24.886    15.425     0.240     0.909     0.000     0.000     0.000     0.000     0.000     0.000     0.000     0.000     0.000     0.000     0.016     1.695    -1.338     0.004     0.290    -0.146    -0.062     0.000     0.000     0.000     3.166     0.387     0.262     0.001     0.015     2.946     0.099     0.016     0.000     0.000     0.000     0.000     0.000     0.000     0.000     0.000 .00000E+00 .00000E+00 0.909E-05 0.444E+04 0.000E+00 0.000E+00 0.000E+00 0.000E+00 0.000E+00 0.155E-01     8.562    17.250     0.000
FRSE   49 000290002   29    0    1.10260E-03   576.600     0.000     0.000     0.000   117.317    90.086    92.942    96.081   311.223   201.394    10.070     2.346     0.000     0.000  1083.739  2023.693   165.522   165.065     0.000     6.226   163.864   341.948    84.918    26.316    28.503    24.129    25.523    15.425     0.354     0.612     0.000     0.000     0.000     0.000     0.000     0.000     0.000     0.000     0.000     0.000     0.008     1.140    -0.905     0.002     0.195    -0.270    -0.172     0.000     0.000     0.000     4.965     0.606     0.439     0.003     0.006     1.767     0.050     0.033     0.000     0.000     0.000     0.000     0.000     0.000     0.000     0.000 .00000E+00 .00000E+00 0.336E-04 0.404E+04 0.000E+00 0.000E+00 0.000E+00 0.000E+00 0.000E+00 0.574E-02     6.793     6.226     0.000
FRSE   50 000290003   29    0    1.81569E-01   576.600     0.000     0.000     0.000   117.317    87.348    91.230    96.084     6.566     3.089     0.154     2.346     0.000     0.000   883.830  2000.249   161.740   161.740     0.000   301.026     0.000   462.827    84.603    26.316    28.503    24.129    25.505    15.425    18.673    13.409     0.000     0.000     0.000     0.000     0.000     0.000     0.000     0.000     0.000     0.000     0.008     1.092    -0.815     0.002     0.187     0.183     0.297     0.000     0.000     0.000    29.477     3.600     2.902     0.005     0.419     0.126     0.000     0.008     0.000     0.000     0.000     0.000     0.000     0.000     0.000     0.000 .00000E+00 .00000E+00 0.242E-04 0.404E+04 0.000E+00 0.000E+00 0.000E+00 0.000E+00 0.000E+00 0.419E+00     0.061   301.026     0.000
FRSE   51 000290004   29    0    1.10260E-03   576.600     0.000     0.000     0.000   117.317    91.335   161.569   164.987   306.355   197.468     9.873     2.346     0.000     0.000  1082.062  2023.093   170.114   169.682     0.000     4.429   160.173   340.892    85.286    26.316    28.503    24.129    24.883    15.425     0.170     0.385     0.000     0.000     0.000     0.000     0.000     0.000     0.000     0.000     0.000     0.000     0.019     1.700    -1.339     0.004     0.290    -0.075    -0.009     0.000     0.000     0.000     2.714     0.331     0.224     0.004     0.005     3.222     0.084     0.044     0.000     0.000     0.000     0.000     0.000     0.000     0.000     0.000 .00000E+00 .00000E+00 0.389E-04 0.444E+04 0.000E+00 0.000E+00 0.000E+00 0.000E+00 0.000E+00 0.544E-02     6.607     4.429     0.000
FRSE   52 000290005   29    0    1.10260E-03   576.600     0.000     0.000     0.000   117.317    91.274   161.393   164.684   283.230   182.030     9.101     2.346     0.000     0.000  1073.145  2021.242   169.862   169.839     0.000    24.120   147.403   347.432    85.270    26.316    28.503    24.129    24.882    15.425     1.098     1.509     0.000     0.000     0.000     0.000     0.000     0.000     0.000     0.000     0.000     0.000     0.018     1.676    -1.322     0.004     0.286    -0.026     0.051     0.000     0.000     0.000    10.538     1.287     0.934     0.003     0.029     3.133     0.075     0.027     0.000     0.000     0.000     0.000     0.000     0.000     0.000     0.000 .00000E+00 .00000E+00 0.389E-04 0.444E+04 0.000E+00 0.000E+00 0.000E+00 0.000E+00 0.000E+00 0.295E-01     6.070    24.120     0.000
FRSE   53 000300001   30    0    1.20519E-03   576.600     0.000     0.000     0.000   117.301    91.369   161.575   165.019   402.171   259.060    12.953     2.346     0.000     0.000  1119.364  2030.623    68.942    68.852     0.000     8.492   212.284   298.421    73.805    26.316    28.503    24.129    24.887    15.425     0.159     0.564     0.000     0.000     0.000     0.000     0.000     0.000     0.000     0.000     0.000     0.000     0.016     1.698    -1.340     0.004     0.290    -0.157    -0.071     0.000     0.000     0.000     2.244     0.274     0.184     0.001     0.008     2.965     0.102     0.017     0.000     0.000     0.000     0.000     0.000     0.000     0.000     0.000 .00000E+00 .00000E+00 0.925E-05 0.444E+04 0.000E+00 0.000E+00 0.000E+00 0.000E+00 0.000E+00 0.767E-02     8.793     8.492     0.000
FRSE   54 000300002   30    0    1.51298E-02   576.600     0.000     0.000     0.000   117.301    87.344    91.232    96.082     6.895     3.243     0.162     2.346     0.000     0.000   890.176  2000.266   161.744   161.744     0.000   300.719     0.000   462.527    84.604    26.316    28.503    24.129    25.505    15.425    11.152    11.156     0.000     0.000     0.000     0.000     0.000     0.000     0.000     0.000     0.000     0.000     0.011     1.097    -0.817     0.002     0.187     0.180     0.297     0.000     0.000     0.000    25.685     3.138     2.514     0.005     0.420     0.133     0.000     0.009     0.000     0.000     0.000     0.000     0.000     0.000     0.000     0.000 .00000E+00 .00000E+00 0.244E-04 0.404E+04 0.000E+00 0.000E+00 0.000E+00 0.000E+00 0.000E+00 0.420E+00     0.064   300.719     0.000
FRSE   55 000300003   30    0    1.30779E-03   576.600     0.000     0.000     0.000   117.301    88.439    92.274    96.082    26.826    15.372     0.769     2.346     0.000     0.000  1003.237  2001.604   164.202   164.202     0.000   279.797     9.989   454.425    84.797    26.316    28.503    24.129    25.511    15.425     3.344     7.355     0.000     0.000     0.000     0.000     0.000     0.000     0.000     0.000     0.000     0.000     0.014     1.107    -0.846     0.003     0.189     0.135     0.244     0.000     0.000     0.000    17.845     2.180     1.717     0.004     0.441     0.813     0.001     0.013     0.000     0.000     0.000     0.000     0.000     0.000     0.000     0.000 .00000E+00 .00000E+00 0.289E-04 0.404E+04 0.000E+00 0.000E+00 0.000E+00 0.000E+00 0.000E+00 0.441E+00     0.437   279.797     0.000
FRSE   56 000300004   30    0    1.10260E-03   576.600     0.000     0.000     0.000   117.301    91.344   161.624   165.082   311.545   200.945    10.047     2.346     0.000     0.000  1084.053  2023.514   170.193   165.808     0.000     0.216   163.052   335.803    85.291    26.316    28.503    24.129    24.883    15.425     0.000     0.054     0.000     0.000     0.000     0.000     0.000     0.000     0.000     0.000     0.000     0.000     0.019     1.706    -1.343     0.004     0.292    -0.087    -0.016     0.000     0.000     0.000     0.000     0.000     0.000     0.004     0.000     3.244     0.087     0.049     0.000     0.000     0.000     0.000     0.000     0.000     0.000     0.000 .00000E+00 .00000E+00 0.393E-04 0.444E+04 0.000E+00 0.000E+00 0.000E+00 0.000E+00 0.000E+00 0.269E-03     6.727     0.216     0.000
FRSE   57 000300005   30    0    1.10260E-03   576.600     0.000     0.000     0.000   117.301    91.328   161.565   164.975   305.827   197.111     9.856     2.346     0.000     0.000  1081.861  2023.047   170.108   169.715     0.000     4.867   159.873   341.048    85.285    26.316    28.503    24.129    24.883    15.425     0.204     0.545     0.000     0.000     0.000     0.000     0.000     0.000     0.000     0.000     0.000     0.000     0.019     1.699    -1.338     0.004     0.290    -0.073    -0.008     0.000     0.000     0.000     3.143     0.384     0.261     0.004     0.006     3.219     0.084     0.044     0.000     0.000     0.000     0.000     0.000     0.000     0.000     0.000 .00000E+00 .00000E+00 0.391E-04 0.444E+04 0.000E+00 0.000E+00 0.000E+00 0.000E+00 0.000E+00 0.598E-02     6.593     4.867     0.000
BARR   58 000310001   31    0    1.10260E-03   576.600     0.000     0.000     0.000   117.302    91.452   161.279   164.825   138.760    85.103     4.255     2.346     0.000     0.000  1032.245  2009.371   337.209   335.594     0.000     2.150    65.395   405.756    94.358    26.316    28.503    24.129    24.917    15.425     0.882     0.859     0.000     0.000     0.000     0.000     0.000     0.000     0.000     0.000     0.000     0.000     0.000     1.657    -1.329     0.000     0.283     0.118     0.203     0.000     0.000     0.000     7.019     0.856     0.668     0.012     0.006     4.184     0.041     0.039     0.000     0.000     0.000     0.000     0.000     0.000     0.000     0.000 .00000E+00 .00000E+00 0.174E-02 0.444E+04 0.000E+00 0.000E+00 0.000E+00 0.000E+00 0.000E+00 0.622E-02     2.618     2.150     0.000
BARR   59 000310002   31    0    1.92342E-03   576.600     0.000     0.000     0.000   117.302    91.430   161.224   164.730   133.505    81.636     4.082     2.346     0.000     0.000  1030.899  2008.963   337.157   336.817     0.000     6.714    62.590   408.622    94.356    26.316    28.503    24.129    24.917    15.425     2.748     1.884     0.000     0.000     0.000     0.000     0.000     0.000     0.000     0.000     0.000     0.000     0.000     1.639    -1.315     0.000     0.280     0.146     0.259     0.000     0.000     0.000    10.690     1.303     1.056     0.010     0.019     4.128     0.039     0.022     0.000     0.000     0.000     0.000     0.000     0.000     0.000     0.000 .00000E+00 .00000E+00 0.152E-02 0.444E+04 0.000E+00 0.000E+00 0.000E+00 0.000E+00 0.000E+00 0.194E-01     2.501     6.714     0.000
BARR   60 000310003   31    0    1.10260E-03   576.600     0.000     0.000     0.000   117.302    88.951    92.138    96.076    42.628    21.852     1.093     2.346     0.000     0.000  1006.517  2002.103   404.574   404.572     0.000    28.590    13.851   447.557    96.528    26.316    28.503    24.129    25.529    15.425     7.218     4.500     0.000     0.000     0.000     0.000     0.000     0.000     0.000     0.000     0.000     0.000     0.000     1.073    -0.857     0.000     0.183     0.134     0.285     0.000     0.000     0.000    17.167     2.093     1.752     0.021     0.164     3.039     0.005     0.017     0.000     0.000     0.000     0.000     0.000     0.000     0.000     0.000 .00000E+00 .00000E+00 0.554E+00 0.404E+04 0.000E+00 0.000E+00 0.000E+00 0.000E+00 0.000E+00 0.164E+00     0.544    28.590     0.000
FRSE   61 000310004   31    0    1.10260E-03   576.600     0.000     0.000     0.000   117.302    91.389   161.669   165.208   412.028   265.639    13.282     2.346     0.000     0.000  1123.213  2031.425    69.069    68.033     0.000     0.554   217.770   295.381    73.819    26.316    28.503    24.129    24.887    15.425     0.000     0.114     0.000     0.000     0.000     0.000     0.000     0.000     0.000     0.000     0.000     0.000     0.016     1.706    -1.345     0.004     0.291    -0.171    -0.082     0.000     0.000     0.000     0.000     0.000     0.000     0.001     0.001     2.991     0.105     0.020     0.000     0.000     0.000     0.000     0.000     0.000     0.000     0.000 .00000E+00 .00000E+00 0.963E-05 0.444E+04 0.000E+00 0.000E+00 0.000E+00 0.000E+00 0.000E+00 0.506E-03     9.024     0.554     0.000
FRSE   62 000310005   31    0    1.44119E-02   576.600     0.000     0.000     0.000   117.302    90.398   161.047   164.683    92.871    57.056     2.853     2.346     0.000     0.000  1020.470  2006.449    68.465    68.465     0.000   306.863    45.162   422.307    73.723    26.316    28.503    24.129    24.877    15.425     1.004     2.648     0.000     0.000     0.000     0.000     0.000     0.000     0.000     0.000     0.000     0.000     0.031     1.681    -1.306     0.004     0.287     0.146     0.183     0.000     0.000     0.000     8.922     1.089     0.806     0.002     0.393     1.988     0.013     0.011     0.000     0.000     0.000     0.000     0.000     0.000     0.000     0.000 .00000E+00 .00000E+00 0.904E-05 0.444E+04 0.000E+00 0.000E+00 0.000E+00 0.000E+00 0.000E+00 0.393E+00     1.817   306.863     0.000
FRSE   63 000310006   31    0    1.16416E-01   576.600     0.000     0.000     0.000   117.302    87.344    91.232    96.083     6.498     3.056     0.153     2.346     0.000     0.000   882.414  2000.252   161.744   161.744     0.000   301.095     0.000   462.899    84.604    26.316    28.503    24.129    25.505    15.425    15.969    13.893     0.000     0.000     0.000     0.000     0.000     0.000     0.000     0.000     0.000     0.000     0.009     1.094    -0.815     0.002     0.187     0.182     0.297     0.000     0.000     0.000    28.272     3.453     2.779     0.005     0.420     0.125     0.000     0.008     0.000     0.000     0.000     0.000     0.000     0.000     0.000     0.000 .00000E+00 .00000E+00 0.243E-04 0.404E+04 0.000E+00 0.000E+00 0.000E+00 0.000E+00 0.000E+00 0.420E+00     0.060   301.095     0.000
FRSE   64 000310007   31    0    1.41041E-03   576.600     0.000     0.000     0.000   117.302    91.344   161.626   165.087   311.806   201.121    10.056     2.346     0.000     0.000  1084.153  2023.531   170.197   154.156     0.000     0.011   163.197   324.097    85.291    26.316    28.503    24.129    24.883    15.425     0.014     0.079     0.000     0.000     0.000     0.000     0.000     0.000     0.000     0.000     0.000     0.000     0.019     1.706    -1.343     0.004     0.292    -0.086    -0.015     0.000     0.000     0.000     0.296     0.036     0.024     0.004     0.000     3.244     0.087     0.045     0.000     0.000     0.000     0.000     0.000     0.000     0.000     0.000 .00000E+00 .00000E+00 0.404E-04 0.444E+04 0.000E+00 0.000E+00 0.000E+00 0.000E+00 0.000E+00 0.161E-04     6.733     0.011     0.000
FRSE   65 000310008   31    0    1.20520E-03   576.600     0.000     0.000     0.000   117.302    91.338   161.601   165.041   309.351   199.474     9.974     2.346     0.000     0.000  1083.211  2023.330   170.160   169.046     0.000     1.935   161.832   339.489    85.289    26.316    28.503    24.129    24.883    15.425     0.112     0.181     0.000     0.000     0.000     0.000     0.000     0.000     0.000     0.000     0.000     0.000     0.019     1.702    -1.340     0.004     0.291    -0.079    -0.011     0.000     0.000     0.000     1.906     0.233     0.156     0.004     0.002     3.232     0.086     0.046     0.000     0.000     0.000     0.000     0.000     0.000     0.000     0.000 .00000E+00 .00000E+00 0.391E-04 0.444E+04 0.000E+00 0.000E+00 0.000E+00 0.000E+00 0.000E+00 0.241E-02     6.676     1.935     0.000
FRSE   66 000310009   31    0    1.18468E-02   576.600     0.000     0.000     0.000   117.302    91.026   161.284   164.683   194.748   123.725     6.186     2.346     0.000     0.000  1045.523  2014.265   169.704   169.704     0.000   108.035    99.118   380.917    85.260    26.316    28.503    24.129    24.879    15.425     1.376     2.038     0.000     0.000     0.000     0.000     0.000     0.000     0.000     0.000     0.000     0.000     0.020     1.673    -1.315     0.004     0.286     0.055     0.123     0.000     0.000     0.000    12.006     1.467     1.084     0.004     0.147     2.878     0.045     0.024     0.000     0.000     0.000     0.000     0.000     0.000     0.000     0.000 .00000E+00 .00000E+00 0.390E-04 0.444E+04 0.000E+00 0.000E+00 0.000E+00 0.000E+00 0.000E+00 0.147E+00     4.060   108.035     0.000
FRSD   67 000310010   31    0    1.10260E-03   576.600     0.000     0.000     0.000   117.302    83.063   161.194   164.778    28.691    15.815     0.791     2.346     0.000     0.000  1005.284  2001.319   138.177   138.177     0.000   309.077     8.394   455.973    82.484    26.316    28.503    24.129    24.454    15.425     0.000     0.023     0.000     0.000     0.000     0.000     0.000     0.000     0.000     0.000     0.000     0.000     0.526     1.702    -1.232     0.376     0.291     0.633     0.600     0.000     0.000     0.000     0.000     0.000     0.000     0.026     0.454     0.363     0.000     0.050     0.000     0.000     0.000     0.000     0.000     0.000     0.000     0.000 .00000E+00 .00000E+00 0.146E-04 0.444E+04 0.000E+00 0.000E+00 0.000E+00 0.000E+00 0.000E+00 0.454E+00     0.326   309.077     0.000
FRSD   68 000310011   31    0    1.61561E-03   576.600     0.000     0.000     0.000   117.302    84.941   162.025   165.213   350.199   227.859    11.393     2.346     0.000     0.000  1101.336  2025.572   139.063   135.532     0.000     0.240   183.755   326.770    82.572    26.316    28.503    24.129    24.487    15.425     0.000     0.000     0.000     0.000     0.000     0.000     0.000     0.000     0.000     0.000     0.000     0.000     0.459     1.709    -1.308     0.310     0.292     0.244     0.286     0.000     0.000     0.000     0.000     0.000     0.000     0.014     0.000     3.233     0.069     0.051     0.000     0.000     0.000     0.000     0.000     0.000     0.000     0.000 .00000E+00 .00000E+00 0.211E-04 0.444E+04 0.000E+00 0.000E+00 0.000E+00 0.000E+00 0.000E+00 0.345E-03     7.243     0.240     0.000
FRSD   69 000310012   31    0    1.30781E-03   576.600     0.000     0.000     0.000   117.302    84.939   162.003   165.165   347.660   226.109    11.305     2.346     0.000     0.000  1100.193  2025.373   139.034   138.188     0.000     2.266   182.311   329.949    82.570    26.316    28.503    24.129    24.487    15.425     0.000     0.002     0.000     0.000     0.000     0.000     0.000     0.000     0.000     0.000     0.000     0.000     0.460     1.708    -1.307     0.310     0.292     0.249     0.288     0.000     0.000     0.000     0.000     0.000     0.000     0.014     0.003     3.216     0.068     0.051     0.000     0.000     0.000     0.000     0.000     0.000     0.000     0.000 .00000E+00 .00000E+00 0.211E-04 0.444E+04 0.000E+00 0.000E+00 0.000E+00 0.000E+00 0.000E+00 0.326E-02     7.184     2.266     0.000
FRSD   70 000310013   31    0    1.18468E-02   576.600     0.000     0.000     0.000   117.302    84.800   161.780   164.771   270.338   173.792     8.690     2.346     0.000     0.000  1068.453  2019.261   138.733   138.733     0.000    73.702   139.327   357.192    82.547    26.316    28.503    24.129    24.482    15.425     0.004     0.017     0.000     0.000     0.000     0.000     0.000     0.000     0.000     0.000     0.000     0.000     0.468     1.698    -1.297     0.322     0.290     0.331     0.350     0.000     0.000     0.000     0.053     0.007     0.005     0.015     0.105     2.711     0.043     0.048     0.000     0.000     0.000     0.000     0.000     0.000     0.000     0.000 .00000E+00 .00000E+00 0.208E-04 0.444E+04 0.000E+00 0.000E+00 0.000E+00 0.000E+00 0.000E+00 0.105E+00     5.430    73.702     0.000
FRSD   71 000310014   31    0    1.20520E-03   576.600     0.000     0.000     0.000   117.302    85.166    92.978    96.143   130.324    82.300     4.115     2.346     0.000     0.000  1034.574  2008.983   133.846   133.846     0.000   209.898    65.020   411.280    82.091    26.316    28.503    24.129    25.344    15.425     0.006     0.035     0.000     0.000     0.000     0.000     0.000     0.000     0.000     0.000     0.000     0.000     0.294     1.136    -0.861     0.211     0.194     0.193     0.221     0.000     0.000     0.000     0.051     0.006     0.005     0.010     0.274     1.335     0.011     0.030     0.000     0.000     0.000     0.000     0.000     0.000     0.000     0.000 .00000E+00 .00000E+00 0.162E-04 0.404E+04 0.000E+00 0.341E+04 0.121E+06 0.000E+00 0.000E+00 0.274E+00     2.515   209.898     0.000
FRSE    1 000010001    1    0    2.87315E-01   144.700     0.000     0.000     0.000   106.958    68.618    80.214    47.490     3.848     6.879     0.344     2.139     0.000     0.000   964.869  2000.689    42.249    42.249     0.000    88.401     0.000   130.828    82.144    26.895    29.579    24.211    25.636    16.480     5.359     1.072     0.000     0.000     0.000     0.000     0.000     0.000     0.000     0.000     0.000     0.000     0.006     0.889    -0.746     0.001     0.152    -0.603     0.036     0.000     5.380     1.204     6.761     0.826     0.663     0.000     0.121     0.120     0.000     0.002     0.000     0.000     0.034     0.506     0.000     2.361     5.000     0.019 .00000E+00 .00000E+00 0.126E-05 0.404E+04 0.000E+00 0.000E+00 0.000E+00 0.000E+00 0.000E+00 0.121E+00     0.177    88.401     0.000
FRSE    2 000020001    2    0    2.16673E+00   144.700     0.000     0.000     0.000   106.954    68.615    80.215    47.493     3.828     6.835     0.342     2.139     0.000     0.000   963.488  2000.686    42.249    42.249     0.000    88.424     0.000   130.850    82.144    26.895    29.579    24.211    25.636    16.480     5.806     1.076     0.000     0.000     0.000     0.000     0.000     0.000     0.000     0.000     0.000     0.000     0.005     0.889    -0.745     0.001     0.152    -0.603     0.036     0.000     5.387     1.204     6.811     0.832     0.669     0.000     0.121     0.119     0.000     0.001     0.000     0.000     0.034     0.502     0.000     2.362     5.000     0.019 .00000E+00 .00000E+00 0.126E-05 0.404E+04 0.000E+00 0.000E+00 0.000E+00 0.000E+00 0.000E+00 0.121E+00     0.176    88.424     0.000
FRSE    3 000030001    3    0    2.37655E-01   144.700     0.000     0.000     0.000   106.976    68.631    80.207    47.480     2.517     4.186     0.209     2.140     0.000     0.000   889.332  2000.375    42.249    42.249     0.000    89.906     0.000   132.249    82.142    26.895    29.579    24.211    25.636    16.480     7.875     9.079     0.000     0.000     0.000     0.000     0.000     0.000     0.000     0.000     0.000     0.000     0.004     0.889    -0.739     0.001     0.152    -0.598     0.041     0.000     5.808     1.218     7.086     0.865     0.698     0.000     0.123     0.065     0.000     0.001     0.000     0.000     0.034     0.302     0.000     2.393     5.000     0.019 .00000E+00 .00000E+00 0.121E-05 0.404E+04 0.000E+00 0.000E+00 0.000E+00 0.000E+00 0.000E+00 0.123E+00     0.094    89.906     0.000
FRSD    4 000030002    3    0    2.29755E-02   144.700     0.000     0.000     0.000   106.976    56.634    83.212    58.817     1.689     2.295     0.115     2.140     0.000     0.000   801.976  2000.151    56.650    56.650     0.000    75.092     0.000   131.776    87.976    26.895    29.579    24.211    25.470    16.480     0.155     0.171     0.000     0.000     0.000     0.000     0.000     0.000     0.000     0.000     0.000     0.000     0.223     0.936    -0.703     0.193     0.160    -0.170     0.240     0.000     3.563     0.890     0.648     0.085     0.070     0.003     0.095     0.010     0.000     0.009     0.000     0.000     0.087     3.842     0.000     1.452     3.208     0.002 .00000E+00 .00000E+00 0.173E-05 0.404E+04 0.000E+00 0.000E+00 0.000E+00 0.000E+00 0.000E+00 0.949E-01     0.034    75.092     0.000
FRSE    5 000040001    4    0    2.30883E-01   144.700     0.000     0.000     0.000   107.020    68.660    80.200    47.456     2.846     4.745     0.237     2.140     0.000     0.000   902.215  2000.424    42.247    42.247     0.000    89.528     0.000   131.882    82.140    26.895    29.579    24.211    25.636    16.480     5.692     6.720     0.000     0.000     0.000     0.000     0.000     0.000     0.000     0.000     0.000     0.000     0.006     0.891    -0.740     0.001     0.152    -0.601     0.041     0.000     5.830     1.219     6.955     0.850     0.682     0.000     0.120     0.076     0.000     0.002     0.000     0.000     0.034     0.295     0.000     2.394     5.000     0.019 .00000E+00 .00000E+00 0.120E-05 0.404E+04 0.000E+00 0.000E+00 0.000E+00 0.000E+00 0.000E+00 0.120E+00     0.107    89.528     0.000
FRSE    6 000050001    5    0    2.10261E-03   144.700     0.000     0.000     0.000   106.961    60.405    82.116    55.734    80.428   184.160     9.208     2.139     0.000     0.000  1077.606  2025.793    42.248    42.705     0.000     3.894   178.954   232.671    82.644    26.895    29.579    24.211    25.709    16.480     0.163     0.162     0.000     0.000     0.000     0.000     0.000     0.000     0.000     0.000     0.000     0.000     0.005     0.935    -0.819     0.001     0.160    -0.341    -0.196     0.000     1.122     0.361     1.639     0.200     0.144     0.000     0.003     0.313     0.048     0.008     0.000     0.000     0.034    13.772     0.000     0.711     3.223     0.006 .00000E+00 .00000E+00 0.169E-05 0.404E+04 0.000E+00 0.000E+00 0.000E+00 0.000E+00 0.000E+00 0.269E-02     7.118     3.894     0.000
FRSE    7 000050002    5    0    2.35808E-01   144.700     0.000     0.000     0.000   106.961    68.620    80.209    47.488     2.505     4.166     0.208     2.139     0.000     0.000   888.638  2000.372    42.249    42.249     0.000    89.921     0.000   132.264    82.143    26.895    29.579    24.211    25.636    16.480     7.976     9.245     0.000     0.000     0.000     0.000     0.000     0.000     0.000     0.000     0.000     0.000     0.004     0.889    -0.739     0.001     0.152    -0.598     0.041     0.000     5.807     1.218     7.088     0.866     0.699     0.000     0.123     0.065     0.000     0.001     0.000     0.000     0.034     0.303     0.000     2.393     5.000     0.019 .00000E+00 .00000E+00 0.122E-05 0.404E+04 0.000E+00 0.000E+00 0.000E+00 0.000E+00 0.000E+00 0.123E+00     0.093    89.921     0.000
FRSD    8 000050003    5    0    2.25240E-01   144.700     0.000     0.000     0.000   106.961    56.620    83.215    58.830     1.689     2.295     0.115     2.139     0.000     0.000   801.953  2000.150    56.650    56.650     0.000    75.092     0.000   131.777    87.977    26.895    29.579    24.211    25.471    16.480     0.201     0.171     0.000     0.000     0.000     0.000     0.000     0.000     0.000     0.000     0.000     0.000     0.221     0.934    -0.702     0.191     0.160    -0.170     0.244     0.000     3.557     0.888     0.792     0.104     0.086     0.003     0.095     0.010     0.000     0.009     0.000     0.000     0.087     3.858     0.000     1.450     3.206     0.002 .00000E+00 .00000E+00 0.174E-05 0.404E+04 0.000E+00 0.000E+00 0.000E+00 0.000E+00 0.000E+00 0.945E-01     0.034    75.092     0.000
FRSE    9 000060001    6    0    2.10260E-03   144.700     0.000     0.000     0.000   107.023    60.472    82.108    55.676    82.433   188.780     9.439     2.140     0.000     0.000  1080.425  2026.460    42.254    58.049     0.000     0.011   183.503   248.867    82.642    26.895    29.579    24.211    25.708    16.480     0.006     0.044     0.000     0.000     0.000     0.000     0.000     0.000     0.000     0.000     0.000     0.000     0.006     0.944    -0.828     0.001     0.161    -0.350    -0.225     0.000     1.127     0.362     0.149     0.018     0.013     0.000     0.000     0.320     0.050     0.014     0.000     0.000     0.034    13.754     0.000     0.714     3.229     0.006 .00000E+00 .00000E+00 0.192E-05 0.404E+04 0.000E+00 0.000E+00 0.000E+00 0.000E+00 0.000E+00 0.303E-05     7.304     0.011     0.000
FRSE   10 000060002    6    0    2.10260E-03   144.700     0.000     0.000     0.000   107.023    60.456    82.108    55.692    81.673   187.038     9.352     2.140     0.000     0.000  1079.390  2026.199    42.251    43.575     0.000     1.587   181.789   234.185    82.642    26.895    29.579    24.211    25.708    16.480     0.067     0.105     0.000     0.000     0.000     0.000     0.000     0.000     0.000     0.000     0.000     0.000     0.005     0.940    -0.824     0.001     0.161    -0.346    -0.212     0.000     1.124     0.361     0.819     0.100     0.071     0.000     0.001     0.317     0.049     0.010     0.000     0.000     0.034    13.767     0.000     0.712     3.226     0.006 .00000E+00 .00000E+00 0.168E-05 0.404E+04 0.000E+00 0.000E+00 0.000E+00 0.000E+00 0.000E+00 0.114E-02     7.234     1.587     0.000
FRSE   11 000060003    6    0    2.23393E-01   144.700     0.000     0.000     0.000   107.023    68.662    80.199    47.455     2.500     4.159     0.208     2.140     0.000     0.000   888.546  2000.370    42.247    42.247     0.000    89.922     0.000   132.263    82.140    26.895    29.579    24.211    25.636    16.480     7.622     9.299     0.000     0.000     0.000     0.000     0.000     0.000     0.000     0.000     0.000     0.000     0.004     0.889    -0.739     0.001     0.152    -0.599     0.041     0.000     5.808     1.218     7.080     0.865     0.698     0.000     0.123     0.065     0.000     0.001     0.000     0.000     0.034     0.302     0.000     2.393     5.000     0.019 .00000E+00 .00000E+00 0.120E-05 0.404E+04 0.000E+00 0.000E+00 0.000E+00 0.000E+00 0.000E+00 0.123E+00     0.093    89.922     0.000
FRSD   12 000060004    6    0    2.42272E-01   144.700     0.000     0.000     0.000   107.023    56.664    83.205    58.795     1.688     2.294     0.115     2.140     0.000     0.000   802.036  2000.151    56.649    56.649     0.000    75.088     0.000   131.771    87.975    26.895    29.579    24.211    25.471    16.480     0.214     0.171     0.000     0.000     0.000     0.000     0.000     0.000     0.000     0.000     0.000     0.000     0.221     0.933    -0.702     0.191     0.160    -0.170     0.245     0.000     3.555     0.888     0.831     0.109     0.090     0.003     0.094     0.010     0.000     0.009     0.000     0.000     0.087     3.862     0.000     1.449     3.206     0.002 .00000E+00 .00000E+00 0.172E-05 0.404E+04 0.000E+00 0.000E+00 0.000E+00 0.000E+00 0.000E+00 0.945E-01     0.034    75.088     0.000
FRSE   13 000070001    7    0    2.10260E-03   144.700     0.000     0.000     0.000   106.896    60.391    82.128    55.739    82.443   188.796     9.440     2.138     0.000     0.000  1080.426  2026.457    42.257    58.053     0.000     0.011   183.512   248.880    82.646    26.895    29.579    24.211    25.708    16.480     0.006     0.044     0.000     0.000     0.000     0.000     0.000     0.000     0.000     0.000     0.000     0.000     0.006     0.945    -0.828     0.001     0.161    -0.350    -0.225     0.000     1.127     0.362     0.149     0.018     0.013     0.000     0.000     0.320     0.050     0.014     0.000     0.000     0.034    13.754     0.000     0.714     3.229     0.006 .00000E+00 .00000E+00 0.196E-05 0.404E+04 0.000E+00 0.000E+00 0.000E+00 0.000E+00 0.000E+00 0.307E-05     7.303     0.011     0.000
FRSE   14 000070002    7    0    2.55815E-01   144.700     0.000     0.000     0.000   106.896    68.576    80.225    47.524     3.890     6.969     0.348     2.138     0.000     0.000   967.500  2000.700    42.251    42.251     0.000    88.358     0.000   130.789    82.146    26.895    29.579    24.211    25.637    16.480     5.042     5.241     0.000     0.000     0.000     0.000     0.000     0.000     0.000     0.000     0.000     0.000     0.006     0.890    -0.746     0.001     0.152    -0.604     0.035     0.000     5.363     1.203     6.717     0.821     0.658     0.000     0.121     0.122     0.000     0.002     0.000     0.000     0.034     0.515     0.000     2.360     5.000     0.019 .00000E+00 .00000E+00 0.127E-05 0.404E+04 0.000E+00 0.000E+00 0.000E+00 0.000E+00 0.000E+00 0.121E+00     0.180    88.358     0.000
FRSE   15 000080001    8    0    2.10260E-03   144.700     0.000     0.000     0.000   107.026    60.474    82.108    55.674    82.433   188.780     9.439     2.141     0.000     0.000  1080.414  2026.458    42.254    58.049     0.000     0.011   183.502   248.867    82.642    26.895    29.579    24.211    25.708    16.480     0.006     0.044     0.000     0.000     0.000     0.000     0.000     0.000     0.000     0.000     0.000     0.000     0.006     0.944    -0.828     0.001     0.161    -0.350    -0.225     0.000     1.127     0.362     0.149     0.018     0.013     0.000     0.000     0.320     0.050     0.014     0.000     0.000     0.034    13.754     0.000     0.714     3.229     0.006 .00000E+00 .00000E+00 0.192E-05 0.404E+04 0.000E+00 0.000E+00 0.000E+00 0.000E+00 0.000E+00 0.303E-05     7.304     0.011     0.000
FRSE   16 000080002    8    0    2.30781E-03   144.700     0.000     0.000     0.000   107.026    60.445    82.107    55.703    80.844   185.138     9.257     2.141     0.000     0.000  1078.219  2025.933    42.247    42.823     0.000     3.069   179.919   232.969    82.642    26.895    29.579    24.211    25.709    16.480     0.137     0.273     0.000     0.000     0.000     0.000     0.000     0.000     0.000     0.000     0.000     0.000     0.005     0.936    -0.820     0.001     0.160    -0.342    -0.200     0.000     1.122     0.360     1.461     0.178     0.128     0.000     0.002     0.314     0.048     0.008     0.000     0.000     0.034    13.777     0.000     0.711     3.223     0.006 .00000E+00 .00000E+00 0.167E-05 0.404E+04 0.000E+00 0.000E+00 0.000E+00 0.000E+00 0.000E+00 0.212E-02     7.158     3.069     0.000
FRSE   17 000080003    8    0    2.64538E-01   144.700     0.000     0.000     0.000   107.026    68.663    80.206    47.455     5.727    10.972     0.549     2.141     0.000     0.000  1002.564  2001.217    42.247    42.247     0.000    86.275     8.896   137.739    82.141    26.895    29.579    24.211    25.638    16.480     4.007     3.204     0.000     0.000     0.000     0.000     0.000     0.000     0.000     0.000     0.000     0.000     0.006     0.889    -0.754     0.001     0.152    -0.596     0.027     0.000     4.587     1.150     6.387     0.780     0.624     0.000     0.118     0.184     0.001     0.002     0.000     0.000     0.034     1.249     0.000     2.249     5.000     0.018 .00000E+00 .00000E+00 0.132E-05 0.404E+04 0.000E+00 0.000E+00 0.000E+00 0.000E+00 0.000E+00 0.118E+00     0.320    86.275     0.000
FRSE   18 000090001    9    0    2.48839E-01   144.700     0.000     0.000     0.000   106.915    68.589    80.217    47.513     2.833     4.720     0.236     2.138     0.000     0.000   901.427  2000.422    42.250    42.250     0.000    89.551     0.000   131.907    82.145    26.895    29.579    24.211    25.636    16.480     6.044     6.759     0.000     0.000     0.000     0.000     0.000     0.000     0.000     0.000     0.000     0.000     0.005     0.891    -0.740     0.001     0.152    -0.601     0.041     0.000     5.829     1.219     6.990     0.854     0.686     0.000     0.120     0.076     0.000     0.001     0.000     0.000     0.034     0.296     0.000     2.394     5.000     0.019 .00000E+00 .00000E+00 0.123E-05 0.404E+04 0.000E+00 0.000E+00 0.000E+00 0.000E+00 0.000E+00 0.120E+00     0.106    89.551     0.000
FRSE   19 000100001   10    0    2.10260E-03   144.700     0.000     0.000     0.000   106.901    60.366    82.126    55.766    80.363   184.004     9.200     2.138     0.000     0.000  1077.510  2025.760    42.249    42.691     0.000     4.031   178.797   232.630    82.646    26.895    29.579    24.211    25.709    16.480     0.171     0.123     0.000     0.000     0.000     0.000     0.000     0.000     0.000     0.000     0.000     0.000     0.005     0.935    -0.819     0.001     0.160    -0.340    -0.195     0.000     1.122     0.361     1.698     0.207     0.150     0.000     0.003     0.313     0.048     0.008     0.000     0.000     0.034    13.774     0.000     0.711     3.223     0.006 .00000E+00 .00000E+00 0.171E-05 0.404E+04 0.000E+00 0.000E+00 0.000E+00 0.000E+00 0.000E+00 0.279E-02     7.111     4.031     0.000
FRSE   20 000100002   10    0    2.53558E-01   144.700     0.000     0.000     0.000   106.901    68.580    80.219    47.521     2.876     4.800     0.240     2.138     0.000     0.000   903.150  2000.430    42.250    42.250     0.000    89.502     0.000   131.861    82.145    26.895    29.579    24.211    25.636    16.480     6.008     6.645     0.000     0.000     0.000     0.000     0.000     0.000     0.000     0.000     0.000     0.000     0.005     0.891    -0.740     0.001     0.152    -0.601     0.041     0.000     5.829     1.219     6.984     0.853     0.686     0.000     0.120     0.078     0.000     0.001     0.000     0.000     0.034     0.296     0.000     2.394     5.000     0.019 .00000E+00 .00000E+00 0.123E-05 0.404E+04 0.000E+00 0.000E+00 0.000E+00 0.000E+00 0.000E+00 0.120E+00     0.108    89.502     0.000
FRSE   21 000110001   11    0    2.62895E-01   144.700     0.000     0.000     0.000   106.898    68.578    80.220    47.522     2.581     4.292     0.215     2.138     0.000     0.000   892.563  2000.383    42.250    42.250     0.000    89.840     0.000   132.186    82.145    26.895    29.579    24.211    25.636    16.480     7.604     8.244     0.000     0.000     0.000     0.000     0.000     0.000     0.000     0.000     0.000     0.000     0.004     0.889    -0.739     0.001     0.152    -0.599     0.041     0.000     5.809     1.218     7.079     0.865     0.697     0.000     0.122     0.067     0.000     0.001     0.000     0.000     0.034     0.302     0.000     2.393     5.000     0.019 .00000E+00 .00000E+00 0.123E-05 0.404E+04 0.000E+00 0.000E+00 0.000E+00 0.000E+00 0.000E+00 0.122E+00     0.096    89.840     0.000
FRSE   22 000120001   12    0    2.12004E+00   144.700     0.000     0.000     0.000   106.904    68.582    80.219    47.519     2.699     4.489     0.224     2.138     0.000     0.000   897.114  2000.401    42.250    42.250     0.000    89.704     0.000   132.055    82.145    26.895    29.579    24.211    25.636    16.480     7.255     7.289     0.000     0.000     0.000     0.000     0.000     0.000     0.000     0.000     0.000     0.000     0.005     0.890    -0.739     0.001     0.152    -0.599     0.041     0.000     5.816     1.219     7.068     0.863     0.696     0.000     0.121     0.071     0.000     0.001     0.000     0.000     0.034     0.300     0.000     2.393     5.000     0.019 .00000E+00 .00000E+00 0.123E-05 0.404E+04 0.000E+00 0.000E+00 0.000E+00 0.000E+00 0.000E+00 0.121E+00     0.100    89.704     0.000
FRSE   23 000130001   13    0    2.11502E+00   144.700     0.000     0.000     0.000   106.829    68.532    80.231    47.559     2.517     4.186     0.209     2.137     0.000     0.000   888.960  2000.374    42.252    42.252     0.000    89.918     0.000   132.264    82.148    26.895    29.579    24.211    25.636    16.480     9.022     9.100     0.000     0.000     0.000     0.000     0.000     0.000     0.000     0.000     0.000     0.000     0.004     0.888    -0.738     0.001     0.152    -0.598     0.040     0.000     5.805     1.218     7.095     0.866     0.701     0.000     0.123     0.065     0.000     0.001     0.000     0.000     0.034     0.303     0.000     2.392     5.000     0.019 .00000E+00 .00000E+00 0.124E-05 0.404E+04 0.000E+00 0.000E+00 0.000E+00 0.000E+00 0.000E+00 0.123E+00     0.094    89.918     0.000
[...]
FRSE   49 000290002   29    0  4.0.10260E-03  3445.525     0.000     0.000     0.000  1685.598   996.485    86.114    90.428  1402.338  1389.894    69.495    33.712     0.000     0.000  1047.898  2014.950  1009.092  1009.086     0.000    38.215  1289.370  2407.533    83.475    26.585    28.867    24.303    25.752    17.431     1.005     2.088     0.000     0.000     0.000     0.000     0.000     0.000     0.000     0.000     0.000     0.000     0.528    12.654   -11.123     0.143     2.159    -1.264    -0.992     0.000     3.035     0.824    12.565     1.533     1.088     0.019     0.043    10.001     0.256     0.189     0.000     0.000     0.074    34.674     0.000     3.548     3.431     2.483 .00000E+00 .00000E+00 0.927E-01 0.000E+00 0.000E+00 0.000E+00 0.000E+00 0.000E+00 0.000E+00 0.428E-01    70.862    38.215     0.000
FRSE   50 000290003   29    0  4.0.81569E-01  3445.525     0.000     0.000     0.000  1685.598   917.164    74.428    90.321    12.388    12.537     0.627    33.712     0.000     0.000   796.038  2000.071   893.688   893.688     0.000  1620.444     0.000  2514.779    80.687    26.585    28.867    24.303    25.567    17.431    39.672    39.306     0.000     0.000     0.000     0.000     0.000     0.000     0.000     0.000     0.000     0.000     1.227    11.560    -9.968     0.286     1.972     0.337     0.711     0.000     7.414     1.731    43.084     5.272     4.206     0.037     1.618     0.128     0.000     0.025     0.000     3.663     0.074     6.862     0.000     7.442     5.000     5.210 .00000E+00 .00000E+00 0.562E-01 0.000E+00 0.000E+00 0.000E+00 0.000E+00 0.000E+00 0.000E+00 0.162E+01     0.647  1620.444     0.000
FRSE   51 000290004   29    0  4.0.10260E-03  3445.525     0.000     0.000     0.000  1685.598  1036.857   152.934   159.064  1342.939  1330.791    66.540    33.712     0.000     0.000  1048.963  2014.313  1039.245  1039.240     0.000    26.931  1232.546  2366.635    84.381    26.585    28.867    24.303    24.950    17.431     0.450     1.050     0.000     0.000     0.000     0.000     0.000     0.000     0.000     0.000     0.000     0.000     1.053    19.160   -16.577     0.253     3.271    -0.233    -0.139     0.000     6.264     1.506     6.390     0.780     0.510     0.030     0.034    13.557     0.358     0.264     0.000     0.000     0.074    14.570     0.000     6.480     4.933     4.536 .00000E+00 .00000E+00 0.102E+00 0.000E+00 0.000E+00 0.000E+00 0.000E+00 0.000E+00 0.000E+00 0.338E-01    67.918    26.931     0.000
FRSE   52 000290005   29    0  4.0.10260E-03  3445.525     0.000     0.000     0.000  1685.598  1035.429   152.722   158.852  1231.953  1220.677    61.034    33.712     0.000     0.000  1044.665  2013.095  1037.642  1037.642     0.000   140.201  1127.255  2367.412    84.359    26.585    28.867    24.303    24.947    17.431     2.698     6.169     0.000     0.000     0.000     0.000     0.000     0.000     0.000     0.000     0.000     0.000     1.059    18.862   -16.335     0.254     3.220     0.011     0.192     0.000     6.342     1.523    23.225     2.836     2.012     0.027     0.174    12.745     0.314     0.146     0.000     0.000     0.074    14.075     0.000     6.551     4.952     4.586 .00000E+00 .00000E+00 0.101E+00 0.000E+00 0.000E+00 0.000E+00 0.000E+00 0.000E+00 0.000E+00 0.174E+00    62.313   140.201     0.000
FRSE   53 000300001   30    0  4.0.20519E-03  3445.525     0.000     0.000     0.000  1685.667  1036.454   153.105   159.056  1841.225  1824.838    91.242    33.713     0.000     0.000  1063.602  2019.476   515.033   515.032     0.000    53.009  1705.954  2366.983    72.361    26.585    28.867    24.303    24.974    17.431     0.488     1.714     0.000     0.000     0.000     0.000     0.000     0.000     0.000     0.000     0.000     0.000     0.898    19.157   -16.600     0.223     3.271    -0.605    -0.456     0.000     5.343     1.330     6.648     0.811     0.524     0.008     0.052    14.395     0.491     0.126     0.000     0.000     0.074    19.858     0.000     5.724     4.700     4.007 .00000E+00 .00000E+00 0.238E-01 0.000E+00 0.000E+00 0.000E+00 0.000E+00 0.000E+00 0.000E+00 0.521E-01    92.988    53.009     0.000
FRSE   54 000300002   30    0  4.0.51298E-02  3445.525     0.000     0.000     0.000  1685.667   917.130    74.429    90.318    13.012    13.168     0.658    33.713     0.000     0.000   804.628  2000.081   893.701   893.701     0.000  1619.842     0.000  2514.224    80.688    26.585    28.867    24.303    25.567    17.431    23.676    32.636     0.000     0.000     0.000     0.000     0.000     0.000     0.000     0.000     0.000     0.000     1.250    11.613   -10.001     0.291     1.981     0.334     0.704     0.000     7.440     1.733    41.599     5.088     4.020     0.038     1.630     0.134     0.000     0.031     0.000     3.659     0.074     6.774     0.000     7.454     5.000     5.218 .00000E+00 .00000E+00 0.557E-01 0.000E+00 0.000E+00 0.000E+00 0.000E+00 0.000E+00 0.000E+00 0.163E+01     0.680  1619.842     0.000
FRSE   55 000300003   30    0  4.0.30779E-03  3445.525     0.000     0.000     0.000  1685.667   952.516    80.528    90.344    85.388    84.323     4.216    33.713     0.000     0.000   995.266  2000.708   959.492   959.493     0.000  1446.798    47.819  2458.466    82.087    26.585    28.867    24.303    25.629    17.431     8.257    14.880     0.000     0.000     0.000     0.000     0.000     0.000     0.000     0.000     0.000     0.000     1.005    11.959   -10.361     0.256     2.040     0.341     0.665     0.000     5.858     1.496    36.116     4.414     3.422     0.032     1.749     1.393     0.003     0.056     0.000     2.936     0.074    14.979     0.000     6.421     4.998     4.495 .00000E+00 .00000E+00 0.853E-01 0.000E+00 0.000E+00 0.000E+00 0.000E+00 0.000E+00 0.000E+00 0.175E+01     4.356  1446.798     0.000
FRSE   56 000300004   30    0  4.0.10260E-03  3445.525     0.000     0.000     0.000  1685.667  1037.134   152.984   159.064  1368.050  1355.686    67.784    33.713     0.000     0.000  1049.964  2014.593  1039.664  1039.312     0.000     1.360  1256.336  2366.192    84.386    26.585    28.867    24.303    24.951    17.431     0.028     0.161     0.000     0.000     0.000     0.000     0.000     0.000     0.000     0.000     0.000     0.000     1.053    19.245   -16.648     0.253     3.286    -0.303    -0.227     0.000     6.255     1.504     0.503     0.061     0.039     0.031     0.002    13.752     0.369     0.301     0.000     0.000     0.074    14.640     0.000     6.470     4.929     4.529 .00000E+00 .00000E+00 0.105E+00 0.000E+00 0.000E+00 0.000E+00 0.000E+00 0.000E+00 0.000E+00 0.172E-02    69.185     1.360     0.000
FRSE   57 000300005   30    0  4.0.10260E-03  3445.525     0.000     0.000     0.000  1685.667  1036.806   152.930   159.061  1340.345  1328.213    66.411    33.713     0.000     0.000  1048.891  2014.281  1039.205  1039.201     0.000    29.592  1230.073  2366.652    84.381    26.585    28.867    24.303    24.950    17.431     0.522     1.080     0.000     0.000     0.000     0.000     0.000     0.000     0.000     0.000     0.000     0.000     1.053    19.147   -16.567     0.253     3.269    -0.224    -0.127     0.000     6.263     1.506     7.239     0.884     0.580     0.030     0.037    13.535     0.357     0.259     0.000     0.000     0.074    14.569     0.000     6.481     4.933     4.536 .00000E+00 .00000E+00 0.102E+00 0.000E+00 0.000E+00 0.000E+00 0.000E+00 0.000E+00 0.000E+00 0.372E-01    67.786    29.592     0.000
BARR   58 000310001   31    0  4.0.10260E-03  3445.525     0.000     0.000     0.000  1685.663   986.155   153.836   158.931   528.224   523.587    26.179    33.713     0.000     0.000  1019.573  2004.878  1918.371  1918.355     0.000    12.527   463.586  2421.361    94.065    26.585    28.867    24.303    25.217    17.431     6.154     6.870     0.000     0.000     0.000     0.000     0.000     0.000     0.000     0.000     0.000     0.000     0.018    18.764   -16.420     0.005     3.203     2.222     2.180     0.000     0.018     0.005    36.019     4.388     3.408     0.100     0.038    18.177     0.226     0.175     0.000    16.571     0.888     0.000     5.410     0.001     0.000     0.000 .00000E+00 .00000E+00 0.825E+00 0.000E+00 0.000E+00 0.000E+00 0.000E+00 0.000E+00 0.000E+00 0.384E-01    26.893    12.527     0.000
BARR   59 000310002   31    0  4.0.92342E-03  3445.525     0.000     0.000     0.000  1685.663   985.221   153.736   158.847   504.599   500.133    25.007    33.713     0.000     0.000  1019.182  2004.623  1917.869  1917.871     0.000    37.449   441.188  2422.204    94.062    26.585    28.867    24.303    25.217    17.431    19.304    15.681     0.000     0.000     0.000     0.000     0.000     0.000     0.000     0.000     0.000     0.000     0.018    18.545   -16.223     0.005     3.166     2.347     2.362     0.000     0.018     0.005    43.456     5.294     4.291     0.090     0.114    17.734     0.212     0.076     0.000    16.611     0.888     0.000     5.412     0.001     0.000     0.000 .00000E+00 .00000E+00 0.835E+00 0.000E+00 0.000E+00 0.000E+00 0.000E+00 0.000E+00 0.000E+00 0.114E+00    25.696    37.449     0.000
BARR   60 000310003   31    0  4.0.10260E-03  3445.525     0.000     0.000     0.000  1685.663   916.268    82.711    90.377   115.509   114.269     5.713    33.713     0.000     0.000   992.195  2000.723  2265.154  2265.154     0.000   147.439    77.282  2495.797    96.132    26.585    28.867    24.303    25.841    17.431    49.995    48.522     0.000     0.000     0.000     0.000     0.000     0.000     0.000     0.000     0.000     0.000     0.017    11.814   -10.474     0.005     2.015     1.718     1.909     0.000     0.017     0.004    48.558     5.916     4.994     0.190     0.695     9.072     0.028     0.040     0.000    25.747     0.888     0.000     5.636     0.001     0.000     0.000 .00000E+00 .00000E+00 0.217E+01 0.000E+00 0.000E+00 0.000E+00 0.000E+00 0.000E+00 0.000E+00 0.695E+00     5.922   147.439     0.000
FRSE   61 000310004   31    0  4.0.10260E-03  3445.525     0.000     0.000     0.000  1685.663  1036.828   153.182   159.062  1890.094  1873.297    93.665    33.713     0.000     0.000  1065.528  2020.015   515.674   515.602     0.000     3.585  1752.279  2366.919    72.374    26.585    28.867    24.303    24.975    17.431     0.019     0.241     0.000     0.000     0.000     0.000     0.000     0.000     0.000     0.000     0.000     0.000     0.898    19.252   -16.678     0.223     3.287    -0.685    -0.556     0.000     5.336     1.327     0.323     0.039     0.025     0.008     0.004    14.651     0.510     0.145     0.000     0.000     0.074    19.925     0.000     5.713     4.690     3.999 .00000E+00 .00000E+00 0.378E-01 0.000E+00 0.000E+00 0.000E+00 0.000E+00 0.000E+00 0.000E+00 0.353E-02    95.453     3.585     0.000
FRSE   62 000310005   31    0  4.0.44119E-02  3445.525     0.000     0.000     0.000  1685.663  1006.466   150.262   158.773   368.915   365.055    18.253    33.713     0.000     0.000  1014.276  2003.607   500.967   500.968     0.000  1567.892   312.964  2400.527    71.850    26.585    28.867    24.303    24.894    17.431     2.474     7.293     0.000     0.000     0.000     0.000     0.000     0.000     0.000     0.000     0.000     0.000     1.508    18.802   -16.158     0.310     3.210     0.696     0.768     0.000     8.983     1.855    20.892     2.550     1.845     0.014     1.718     5.571     0.049     0.076     0.000     0.000     0.074     3.810     0.000     7.987     5.000     5.591 .00000E+00 .00000E+00 0.223E-01 0.000E+00 0.000E+00 0.000E+00 0.000E+00 0.000E+00 0.000E+00 0.172E+01    18.704  1567.892     0.000
FRSE   63 000310006   31    0  4.0.16416E-01  3445.525     0.000     0.000     0.000  1685.663   917.144    74.429    90.318    12.261    12.408     0.620    33.713     0.000     0.000   794.155  2000.078   893.694   893.694     0.000  1620.585     0.000  2514.920    80.688    26.585    28.867    24.303    25.567    17.431    33.923    40.681     0.000     0.000     0.000     0.000     0.000     0.000     0.000     0.000     0.000     0.000     1.235    11.574    -9.977     0.288     1.975     0.336     0.710     0.000     7.421     1.731    42.722     5.227     4.159     0.037     1.622     0.127     0.000     0.027     0.000     3.659     0.074     6.837     0.000     7.445     5.000     5.212 .00000E+00 .00000E+00 0.557E-01 0.000E+00 0.000E+00 0.000E+00 0.000E+00 0.000E+00 0.000E+00 0.162E+01     0.641  1620.585     0.000
FRSE   64 000310007   31    0  4.0.41041E-03  3445.525     0.000     0.000     0.000  1685.663  1037.151   152.987   159.065  1369.317  1356.942    67.847    33.713     0.000     0.000  1050.013  2014.603  1039.684  1037.786     0.000     0.068  1257.536  2364.640    84.387    26.585    28.867    24.303    24.951    17.431     0.025     0.143     0.000     0.000     0.000     0.000     0.000     0.000     0.000     0.000     0.000     0.000     1.053    19.244   -16.648     0.253     3.285    -0.303    -0.228     0.000     6.253     1.503     0.595     0.073     0.047     0.031     0.000    13.759     0.369     0.300     0.000     0.000     0.074    14.651     0.000     6.469     4.928     4.528 .00000E+00 .00000E+00 0.159E+00 0.000E+00 0.000E+00 0.000E+00 0.000E+00 0.000E+00 0.000E+00 0.870E-04    69.249     0.068     0.000
FRSE   65 000310008   31    0  4.0.20520E-03  3445.525     0.000     0.000     0.000  1685.663  1037.015   152.964   159.063  1357.415  1345.140    67.257    33.713     0.000     0.000  1049.552  2014.470  1039.488  1039.456     0.000    12.183  1246.254  2366.541    84.384    26.585    28.867    24.303    24.951    17.431     0.282     0.573     0.000     0.000     0.000     0.000     0.000     0.000     0.000     0.000     0.000     0.000     1.052    19.191   -16.604     0.253     3.276    -0.263    -0.175     0.000     6.252     1.504     4.328     0.528     0.343     0.030     0.015    13.658     0.364     0.277     0.000     0.000     0.074    14.639     0.000     6.470     4.930     4.529 .00000E+00 .00000E+00 0.102E+00 0.000E+00 0.000E+00 0.000E+00 0.000E+00 0.000E+00 0.000E+00 0.153E-01    68.648    12.183     0.000
FRSE   66 000310009   31    0  4.0.18468E-02  3445.525     0.000     0.000     0.000  1685.663  1027.859   152.184   158.828   817.037   809.204    40.460    33.713     0.000     0.000  1028.351  2008.526  1034.021  1034.021     0.000   565.905   735.306  2376.594    84.296    26.585    28.867    24.303    24.925    17.431     3.256     5.587     0.000     0.000     0.000     0.000     0.000     0.000     0.000     0.000     0.000     0.000     1.222    18.792   -16.246     0.279     3.208     0.340     0.499     0.000     7.330     1.676    25.177     3.075     2.226     0.032     0.731    10.035     0.175     0.129     0.000     0.000     0.074     9.362     0.000     7.211     4.999     5.048 .00000E+00 .00000E+00 0.100E+00 0.000E+00 0.000E+00 0.000E+00 0.000E+00 0.000E+00 0.000E+00 0.731E+00    41.364   565.905     0.000
FRSD   67 000310010   31    0  4.0.10260E-03  3445.525     0.000     0.000     0.000  1685.663   997.143   141.491   158.794    67.931    67.654     3.383    33.713     0.000     0.000   988.876  2000.432   823.521   823.521     0.000  1555.770    33.589  2416.368    79.978    26.585    28.867    24.303    24.656    17.431     1.353     2.817     0.000     0.000     0.000     0.000     0.000     0.000     0.000     0.000     0.000     0.000     2.803    18.713   -15.469     0.791     3.197     0.745     0.797     0.000    13.484     2.682    13.968     1.736     1.299     0.057     1.631     1.150     0.002     0.189     0.000     0.000     0.385     6.465     0.000    11.445     4.993     8.011 .00000E+00 .00000E+00 0.514E-01 0.000E+00 0.000E+00 0.000E+00 0.000E+00 0.000E+00 0.000E+00 0.163E+01     3.489  1555.770     0.000
FRSD   68 000310011   31    0  4.0.61561E-03  3445.525     0.000     0.000     0.000  1685.663  1049.626   152.368   159.108  1519.204  1506.567    75.328    33.713     0.000     0.000  1062.304  2016.127   876.198   875.913     0.000     1.489  1399.693  2353.747    81.384    26.585    28.867    24.303    24.799    17.431     0.012     0.054     0.000     0.000     0.000     0.000     0.000     0.000     0.000     0.000     0.000     0.000     1.787    19.284   -16.334     0.611     3.294    -0.537    -0.368     0.000     8.264     1.958     0.230     0.028     0.018     0.027     0.002    12.425     0.361     0.267     0.000     0.000     0.385    29.788     0.000     8.356     4.569     5.849 .00000E+00 .00000E+00 0.835E-01 0.000E+00 0.000E+00 0.000E+00 0.000E+00 0.000E+00 0.000E+00 0.162E-02    76.652     1.489     0.000
FRSD   69 000310012   31    0  4.0.30781E-03  3445.525     0.000     0.000     0.000  1685.663  1049.524   152.345   159.106  1506.788  1494.234    74.712    33.713     0.000     0.000  1061.820  2015.995   876.014   875.990     0.000    14.080  1387.866  2353.962    81.382    26.585    28.867    24.303    24.798    17.431     0.066     0.180     0.000     0.000     0.000     0.000     0.000     0.000     0.000     0.000     0.000     0.000     1.788    19.267   -16.320     0.612     3.291    -0.518    -0.350     0.000     8.270     1.960     1.051     0.129     0.083     0.027     0.015    12.356     0.357     0.262     0.000     0.000     0.385    29.740     0.000     8.363     4.572     5.854 .00000E+00 .00000E+00 0.701E-01 0.000E+00 0.000E+00 0.000E+00 0.000E+00 0.000E+00 0.000E+00 0.153E-01    76.026    14.080     0.000
FRSD   70 000310013   31    0  4.0.18468E-02  3445.525     0.000     0.000     0.000  1685.663  1046.229   151.815   158.886  1136.977  1126.937    56.347    33.713     0.000     0.000  1047.307  2011.943   872.567   872.567     0.000   389.843  1036.307  2356.079    81.315    26.585    28.867    24.303    24.783    17.431     0.600     0.967     0.000     0.000     0.000     0.000     0.000     0.000     0.000     0.000     0.000     0.000     1.866    19.123   -16.183     0.637     3.266    -0.153    -0.011     0.000     8.720     2.050     7.846     0.968     0.648     0.029     0.434    10.384     0.238     0.226     0.000     0.000     0.385    26.868     0.000     8.748     4.688     6.124 .00000E+00 .00000E+00 0.608E-01 0.000E+00 0.000E+00 0.000E+00 0.000E+00 0.000E+00 0.000E+00 0.434E+00    57.361   389.843     0.000
FRSD   71 000310014   31    0  4.0.20520E-03  3445.525     0.000     0.000     0.000  1685.663   994.381    84.038    90.410   533.003   527.956    26.398    33.713     0.000     0.000  1016.164  2005.382   831.509   831.509     0.000  1085.598   469.743  2413.747    79.784    26.585    28.867    24.303    25.635    17.431     2.219     5.027     0.000     0.000     0.000     0.000     0.000     0.000     0.000     0.000     0.000     0.000     1.100    12.427   -10.672     0.416     2.121    -0.198     0.021     0.000     4.875     1.291    21.867     2.688     1.987     0.020     1.159     4.888     0.055     0.130     0.000     0.000     0.385    52.796     0.000     5.509     3.733     3.856 .00000E+00 .00000E+00 0.514E-01 0.000E+00 0.000E+00 0.341E+04 0.121E+06 0.000E+00 0.000E+00 0.116E+01    26.898  1085.598     0.000
