1
    SWAT Dec 23 2016    VER 2016/Rev 664                                                                 0/ 0/   0      0: 0: 0

    General Input/Output section (file.cio):                                        
    2/12/2020 14:38:04 QSWAT Workflow v1.5.2                                        
                                                                                    


       SUB      GIS  MON   AREAkm2  PRECIPmm SNOMELTmm     PETmm      ETmm      SWmm    PERCmm    SURQmm    GW_Qmm    WYLDmm  SYLDt/ha ORGNkg/ha ORGPkg/haNSURQkg/ha SOLPkg/ha SEDPkg/ha LAT Q(mm)LATNO3kg/hGWNO3kg/haCHOLAmic/LCBODU mg/L DOXQ mg/L TNO3kg/ha   QTILEmm TVAPkg/ha
BIGSUB   1        0    1.15760E+00 0.269E+02 0.000E+00 0.233E+01 0.231E+01 0.108E+03 0.132E+00 0.325E+01 0.233E+00 0.153E+02 0.180E+00 0.501E+00 0.613E-01 0.278E-03 0.265E-03 0.485E-01 0.118E+02 0.178E-01 0.190E-04 .15707E-02 0.154E+02 0.101E+01 0.000E+00 0.000E+00 0.000E+00
BIGSUB   2        0    1.14128E+00 0.269E+02 0.000E+00 0.233E+01 0.231E+01 0.934E+02 0.752E-01 0.404E+01 0.546E-01 0.147E+02 0.494E+00 0.851E+00 0.104E+00 0.388E-03 0.277E-03 0.836E-01 0.106E+02 0.986E-02 0.151E-04 .27137E-02 0.353E+02 0.897E+00 0.000E+00 0.000E+00 0.000E+00
BIGSUB   3        0    1.21095E+00 0.269E+02 0.000E+00 0.233E+01 0.231E+01 0.109E+03 0.177E+01 0.327E+01 0.819E+00 0.146E+02 0.174E+00 0.497E+00 0.608E-01 0.270E-03 0.268E-03 0.481E-01 0.104E+02 0.166E-01 0.140E-03 .15798E-02 0.155E+02 0.949E+00 0.000E+00 0.000E+00 0.000E+00
BIGSUB   4        0    1.18489E+00 0.269E+02 0.000E+00 0.233E+01 0.231E+01 0.908E+02 0.000E+00 0.422E+01 0.000E+00 0.147E+02 0.346E+00 0.734E+00 0.897E-01 0.412E-03 0.304E-03 0.718E-01 0.105E+02 0.996E-02 0.100E-11 .24144E-02 0.278E+02 0.881E+00 0.000E+00 0.000E+00 0.000E+00
BIGSUB   5        0    1.20438E+00 0.269E+02 0.000E+00 0.233E+01 0.231E+01 0.101E+03 0.789E+00 0.399E+01 0.744E+00 0.143E+02 0.139E+00 0.514E+00 0.630E-01 0.292E-03 0.354E-03 0.497E-01 0.952E+01 0.146E-01 0.115E-03 .19470E-02 0.149E+02 0.865E+00 0.000E+00 0.000E+00 0.000E+00
BIGSUB   6        0    1.17925E+00 0.269E+02 0.000E+00 0.233E+01 0.231E+01 0.934E+02 0.626E-01 0.443E+01 0.355E+00 0.145E+02 0.192E+00 0.599E+00 0.733E-01 0.342E-03 0.365E-03 0.582E-01 0.973E+01 0.131E-01 0.345E-04 .22285E-02 0.192E+02 0.848E+00 0.000E+00 0.000E+00 0.000E+00
BIGSUB   7        0    1.19956E+00 0.269E+02 0.000E+00 0.233E+01 0.231E+01 0.957E+02 0.150E+00 0.423E+01 0.338E+00 0.147E+02 0.202E+00 0.596E+00 0.729E-01 0.335E-03 0.340E-03 0.579E-01 0.101E+02 0.140E-01 0.282E-04 .21384E-02 0.194E+02 0.878E+00 0.000E+00 0.000E+00 0.000E+00
BIGSUB   8        0    1.58278E-01 0.269E+02 0.000E+00 0.233E+01 0.231E+01 0.913E+02 0.000E+00 0.427E+01 0.000E+00 0.147E+02 0.264E+00 0.656E+00 0.802E-01 0.408E-03 0.323E-03 0.640E-01 0.104E+02 0.116E-01 0.100E-11 .22194E-02 0.230E+02 0.875E+00 0.000E+00 0.000E+00 0.000E+00
BIGSUB   9        0    1.38835E+00 0.269E+02 0.000E+00 0.233E+01 0.231E+01 0.904E+02 0.489E-01 0.419E+01 0.127E-01 0.148E+02 0.409E+00 0.793E+00 0.968E-01 0.412E-03 0.297E-03 0.778E-01 0.106E+02 0.969E-02 0.422E-05 .25363E-02 0.310E+02 0.892E+00 0.000E+00 0.000E+00 0.000E+00
BIGSUB  10        0    1.17761E+00 0.269E+02 0.000E+00 0.233E+01 0.231E+01 0.944E+02 0.492E+00 0.402E+01 0.173E+00 0.145E+02 0.337E+00 0.707E+00 0.864E-01 0.397E-03 0.294E-03 0.692E-01 0.103E+02 0.971E-02 0.740E-04 .22881E-02 0.267E+02 0.878E+00 0.000E+00 0.000E+00 0.000E+00
BIGSUB  11        0    1.14877E-01 0.269E+02 0.000E+00 0.233E+01 0.231E+01 0.112E+03 0.660E+00 0.315E+01 0.420E+00 0.141E+02 0.327E+00 0.608E+00 0.743E-01 0.314E-03 0.241E-03 0.596E-01 0.105E+02 0.111E-01 0.125E-03 .18936E-02 0.239E+02 0.920E+00 0.000E+00 0.000E+00 0.000E+00
BIGSUB   1        0    2.15760E+00 0.100E+01 0.000E+00 0.389E+01 0.317E+01 0.105E+03 0.131E-03 0.374E-02 0.233E+00 0.274E+01 0.271E-09 0.518E-04 0.634E-05 0.185E-06 0.931E-06 0.481E-05 0.249E+01 0.312E-02 0.186E-04 .11424E-07 0.000E+00 0.227E+00 0.000E+00 0.000E+00 0.000E+00
BIGSUB   2        0    2.14128E+00 0.100E+01 0.000E+00 0.390E+01 0.305E+01 0.913E+02 0.000E+00 0.100E-05 0.542E-01 0.371E+01 0.142E-09 0.572E-07 0.718E-08 0.100E-08 0.100E-08 0.818E-08 0.365E+01 0.339E-02 0.146E-04 .17426E-21 0.000E+00 0.308E+00 0.000E+00 0.000E+00 0.000E+00
BIGSUB   3        0    2.21095E+00 0.100E+01 0.000E+00 0.389E+01 0.317E+01 0.107E+03 0.000E+00 0.276E-04 0.790E+00 0.351E+01 0.140E-09 0.981E-07 0.123E-07 0.337E-08 0.108E-07 0.103E-07 0.268E+01 0.363E-02 0.136E-03 .17447E-14 0.000E+00 0.291E+00 0.000E+00 0.000E+00 0.000E+00
BIGSUB   4        0    2.18489E+00 0.100E+01 0.000E+00 0.390E+01 0.306E+01 0.887E+02 0.000E+00 0.100E-05 0.000E+00 0.361E+01 0.541E-10 0.100E-08 0.100E-08 0.100E-08 0.100E-08 0.200E-08 0.360E+01 0.342E-02 0.100E-11 .61481E-23 0.000E+00 0.299E+00 0.000E+00 0.000E+00 0.000E+00
BIGSUB   5        0    2.20438E+00 0.100E+01 0.000E+00 0.389E+01 0.313E+01 0.993E+02 0.151E-04 0.249E-03 0.738E+00 0.364E+01 0.191E-09 0.565E-05 0.692E-06 0.138E-07 0.625E-07 0.526E-06 0.287E+01 0.410E-02 0.112E-03 .41680E-09 0.000E+00 0.302E+00 0.000E+00 0.000E+00 0.000E+00
BIGSUB   6        0    2.17925E+00 0.100E+01 0.000E+00 0.390E+01 0.308E+01 0.913E+02 0.213E-04 0.129E-02 0.352E+00 0.371E+01 0.132E-09 0.176E-04 0.215E-05 0.642E-07 0.321E-06 0.164E-05 0.334E+01 0.451E-02 0.335E-04 .10819E-08 0.000E+00 0.308E+00 0.000E+00 0.000E+00 0.000E+00
BIGSUB   7        0    2.19956E+00 0.100E+01 0.000E+00 0.390E+01 0.309E+01 0.936E+02 0.192E-04 0.746E-03 0.336E+00 0.362E+01 0.168E-09 0.267E-05 0.327E-06 0.380E-07 0.197E-06 0.250E-06 0.327E+01 0.435E-02 0.275E-04 .20744E-09 0.000E+00 0.300E+00 0.000E+00 0.000E+00 0.000E+00
BIGSUB   8        0    2.58278E-01 0.100E+01 0.000E+00 0.390E+01 0.306E+01 0.892E+02 0.000E+00 0.100E-05 0.000E+00 0.358E+01 0.172E-09 0.100E-08 0.100E-08 0.100E-08 0.100E-08 0.200E-08 0.358E+01 0.399E-02 0.100E-11 .62342E-23 0.000E+00 0.297E+00 0.000E+00 0.000E+00 0.000E+00
BIGSUB   9        0    2.38835E+00 0.100E+01 0.000E+00 0.390E+01 0.305E+01 0.883E+02 0.589E-04 0.177E-02 0.126E-01 0.366E+01 0.677E-10 0.214E-04 0.261E-05 0.880E-07 0.447E-06 0.198E-05 0.364E+01 0.333E-02 0.414E-05 .10793E-07 0.000E+00 0.304E+00 0.000E+00 0.000E+00 0.000E+00
BIGSUB  10        0    2.17761E+00 0.100E+01 0.000E+00 0.390E+01 0.306E+01 0.924E+02 0.936E-03 0.379E-03 0.172E+00 0.376E+01 0.294E-09 0.113E-08 0.999E-09 0.131E-06 0.136E-06 0.200E-08 0.357E+01 0.342E-02 0.724E-04 .44239E-11 0.000E+00 0.312E+00 0.000E+00 0.000E+00 0.000E+00
BIGSUB  11        0    2.14877E-01 0.100E+01 0.000E+00 0.390E+01 0.309E+01 0.110E+03 0.309E-03 0.475E-04 0.417E+00 0.404E+01 0.201E-08 0.100E-08 0.100E-08 0.469E-07 0.235E-07 0.200E-08 0.360E+01 0.383E-02 0.122E-03 .18985E-14 0.000E+00 0.335E+00 0.000E+00 0.000E+00 0.000E+00
BIGSUB   1        0    3.15760E+00 0.155E+02 0.000E+00 0.471E+01 0.401E+01 0.107E+03 0.729E-01 0.500E+00 0.232E+00 0.851E+01 0.259E-01 0.701E-01 0.858E-02 0.837E-04 0.392E-04 0.682E-02 0.777E+01 0.121E-01 0.183E-04 .21458E-04 0.707E+00 0.659E+00 0.000E+00 0.000E+00 0.000E+00
BIGSUB   2        0    3.14128E+00 0.155E+02 0.000E+00 0.471E+01 0.392E+01 0.926E+02 0.997E-01 0.614E+00 0.539E-01 0.824E+01 0.725E-01 0.124E+00 0.152E-01 0.124E-03 0.410E-04 0.122E-01 0.757E+01 0.102E-01 0.144E-04 .30141E-04 0.144E+01 0.627E+00 0.000E+00 0.000E+00 0.000E+00
BIGSUB   3        0    3.21095E+00 0.155E+02 0.000E+00 0.471E+01 0.402E+01 0.108E+03 0.123E+01 0.498E+00 0.737E+00 0.813E+01 0.260E-01 0.705E-01 0.863E-02 0.822E-04 0.382E-04 0.687E-02 0.686E+01 0.110E-01 0.131E-03 .22645E-04 0.728E+00 0.627E+00 0.000E+00 0.000E+00 0.000E+00
BIGSUB   4        0    3.18489E+00 0.155E+02 0.000E+00 0.471E+01 0.392E+01 0.899E+02 0.000E+00 0.655E+00 0.000E+00 0.826E+01 0.518E-01 0.110E+00 0.134E-01 0.134E-03 0.465E-04 0.107E-01 0.760E+01 0.110E-01 0.100E-11 .27656E-04 0.116E+01 0.625E+00 0.000E+00 0.000E+00 0.000E+00
BIGSUB   5        0    3.20438E+00 0.155E+02 0.000E+00 0.471E+01 0.399E+01 0.100E+03 0.148E+01 0.692E+00 0.734E+00 0.829E+01 0.232E-01 0.846E-01 0.104E-01 0.981E-04 0.594E-04 0.820E-02 0.683E+01 0.143E-01 0.110E-03 .31575E-04 0.782E+00 0.624E+00 0.000E+00 0.000E+00 0.000E+00
BIGSUB   6        0    3.17925E+00 0.155E+02 0.000E+00 0.471E+01 0.396E+01 0.932E+02 0.213E+00 0.753E+00 0.350E+00 0.797E+01 0.314E-01 0.983E-01 0.120E-01 0.114E-03 0.611E-04 0.955E-02 0.685E+01 0.105E-01 0.327E-04 .35140E-04 0.980E+00 0.593E+00 0.000E+00 0.000E+00 0.000E+00
BIGSUB   7        0    3.19956E+00 0.155E+02 0.000E+00 0.471E+01 0.396E+01 0.956E+02 0.130E+00 0.701E+00 0.334E+00 0.800E+01 0.323E-01 0.949E-01 0.116E-01 0.110E-03 0.553E-04 0.923E-02 0.695E+01 0.980E-02 0.267E-04 .32818E-04 0.969E+00 0.600E+00 0.000E+00 0.000E+00 0.000E+00
BIGSUB   8        0    3.58278E-01 0.155E+02 0.000E+00 0.471E+01 0.393E+01 0.906E+02 0.000E+00 0.672E+00 0.000E+00 0.813E+01 0.401E-01 0.998E-01 0.122E-01 0.133E-03 0.502E-04 0.973E-02 0.746E+01 0.107E-01 0.100E-11 .27329E-04 0.100E+01 0.613E+00 0.000E+00 0.000E+00 0.000E+00
BIGSUB   9        0    3.38835E+00 0.155E+02 0.000E+00 0.471E+01 0.392E+01 0.896E+02 0.269E-01 0.642E+00 0.126E-01 0.823E+01 0.601E-01 0.116E+00 0.142E-01 0.133E-03 0.448E-04 0.114E-01 0.757E+01 0.101E-01 0.409E-05 .28267E-04 0.126E+01 0.624E+00 0.000E+00 0.000E+00 0.000E+00
BIGSUB  10        0    3.17761E+00 0.155E+02 0.000E+00 0.472E+01 0.392E+01 0.936E+02 0.305E+00 0.615E+00 0.172E+00 0.821E+01 0.500E-01 0.105E+00 0.128E-01 0.127E-03 0.436E-04 0.102E-01 0.741E+01 0.105E-01 0.714E-04 .25835E-04 0.110E+01 0.624E+00 0.000E+00 0.000E+00 0.000E+00
BIGSUB  11        0    3.14877E-01 0.155E+02 0.000E+00 0.472E+01 0.393E+01 0.111E+03 0.766E+00 0.451E+00 0.415E+00 0.823E+01 0.477E-01 0.868E-01 0.106E-01 0.923E-04 0.306E-04 0.853E-02 0.735E+01 0.107E-01 0.120E-03 .21038E-04 0.976E+00 0.639E+00 0.000E+00 0.000E+00 0.000E+00
BIGSUB   1        0    4.15760E+00 0.640E+01 0.000E+00 0.574E+01 0.466E+01 0.106E+03 0.171E-01 0.118E-02 0.231E+00 0.388E+01 0.271E-09 0.767E-05 0.939E-06 0.890E-07 0.303E-06 0.713E-06 0.364E+01 0.379E-02 0.180E-04 .79935E-10 0.000E+00 0.318E+00 0.000E+00 0.000E+00 0.000E+00
BIGSUB   2        0    4.14128E+00 0.640E+01 0.000E+00 0.573E+01 0.453E+01 0.916E+02 0.856E-02 0.100E-05 0.535E-01 0.452E+01 0.142E-09 0.143E-07 0.183E-08 0.100E-08 0.100E-08 0.200E-08 0.446E+01 0.414E-02 0.141E-04 .30315E-22 0.000E+00 0.370E+00 0.000E+00 0.000E+00 0.000E+00
BIGSUB   3        0    4.21095E+00 0.640E+01 0.000E+00 0.574E+01 0.467E+01 0.107E+03 0.202E+00 0.104E-05 0.715E+00 0.423E+01 0.140E-09 0.100E-08 0.100E-08 0.100E-08 0.101E-08 0.200E-08 0.348E+01 0.403E-02 0.128E-03 .11684E-22 0.000E+00 0.346E+00 0.000E+00 0.000E+00 0.000E+00
BIGSUB   4        0    4.18489E+00 0.640E+01 0.000E+00 0.574E+01 0.454E+01 0.890E+02 0.000E+00 0.100E-05 0.000E+00 0.447E+01 0.541E-10 0.100E-08 0.100E-08 0.100E-08 0.100E-08 0.200E-08 0.447E+01 0.442E-02 0.100E-11 .40069E-23 0.000E+00 0.366E+00 0.000E+00 0.000E+00 0.000E+00
BIGSUB   5        0    4.20438E+00 0.640E+01 0.000E+00 0.574E+01 0.463E+01 0.994E+02 0.116E+00 0.373E-04 0.730E+00 0.445E+01 0.191E-09 0.441E-07 0.559E-08 0.458E-08 0.952E-08 0.544E-08 0.369E+01 0.585E-02 0.107E-03 .31319E-13 0.000E+00 0.364E+00 0.000E+00 0.000E+00 0.000E+00
BIGSUB   6        0    4.17925E+00 0.640E+01 0.000E+00 0.574E+01 0.459E+01 0.925E+02 0.816E-02 0.461E-03 0.347E+00 0.436E+01 0.132E-09 0.246E-05 0.302E-06 0.341E-07 0.120E-06 0.230E-06 0.400E+01 0.464E-02 0.317E-04 .16772E-10 0.000E+00 0.357E+00 0.000E+00 0.000E+00 0.000E+00
BIGSUB   7        0    4.19956E+00 0.640E+01 0.000E+00 0.574E+01 0.460E+01 0.949E+02 0.181E-01 0.350E-03 0.331E+00 0.430E+01 0.168E-09 0.552E-08 0.155E-08 0.245E-07 0.933E-07 0.242E-08 0.396E+01 0.421E-02 0.260E-04 .11662E-10 0.000E+00 0.352E+00 0.000E+00 0.000E+00 0.000E+00
BIGSUB   8        0    4.58278E-01 0.640E+01 0.000E+00 0.574E+01 0.455E+01 0.897E+02 0.000E+00 0.100E-05 0.000E+00 0.437E+01 0.172E-09 0.100E-08 0.100E-08 0.100E-08 0.100E-08 0.200E-08 0.436E+01 0.438E-02 0.100E-11 .41959E-23 0.000E+00 0.357E+00 0.000E+00 0.000E+00 0.000E+00
BIGSUB   9        0    4.38835E+00 0.640E+01 0.000E+00 0.573E+01 0.453E+01 0.886E+02 0.639E-02 0.373E-03 0.126E-01 0.449E+01 0.677E-10 0.277E-05 0.339E-06 0.336E-07 0.950E-07 0.258E-06 0.448E+01 0.408E-02 0.404E-05 .63886E-10 0.000E+00 0.368E+00 0.000E+00 0.000E+00 0.000E+00
BIGSUB  10        0    4.17761E+00 0.640E+01 0.000E+00 0.573E+01 0.453E+01 0.926E+02 0.550E-01 0.846E-04 0.171E+00 0.457E+01 0.294E-09 0.999E-09 0.999E-09 0.842E-08 0.257E-07 0.200E-08 0.439E+01 0.430E-02 0.702E-04 .20404E-13 0.000E+00 0.374E+00 0.000E+00 0.000E+00 0.000E+00
BIGSUB  11        0    4.14877E-01 0.640E+01 0.000E+00 0.573E+01 0.454E+01 0.110E+03 0.762E-01 0.109E-05 0.412E+00 0.470E+01 0.201E-08 0.100E-08 0.100E-08 0.122E-08 0.104E-08 0.200E-08 0.427E+01 0.451E-02 0.118E-03 .44158E-22 0.000E+00 0.385E+00 0.000E+00 0.000E+00 0.000E+00
BIGSUB   1        0    5.15760E+00 0.257E+02 0.000E+00 0.574E+01 0.468E+01 0.108E+03 0.669E+00 0.321E+01 0.231E+00 0.166E+02 0.327E+00 0.780E+00 0.954E-01 0.231E-03 0.254E-03 0.755E-01 0.132E+02 0.247E-01 0.179E-04 .21192E-02 0.225E+02 0.111E+01 0.000E+00 0.000E+00 0.000E+00
BIGSUB   2        0    5.14128E+00 0.257E+02 0.000E+00 0.574E+01 0.456E+01 0.930E+02 0.201E+00 0.392E+01 0.534E-01 0.158E+02 0.882E+00 0.129E+01 0.158E+00 0.354E-03 0.260E-03 0.127E+00 0.118E+02 0.189E-01 0.140E-04 .33694E-02 0.491E+02 0.978E+00 0.000E+00 0.000E+00 0.000E+00
BIGSUB   3        0    5.21095E+00 0.257E+02 0.000E+00 0.574E+01 0.468E+01 0.108E+03 0.273E+01 0.321E+01 0.718E+00 0.153E+02 0.315E+00 0.764E+00 0.935E-01 0.220E-03 0.255E-03 0.740E-01 0.113E+02 0.225E-01 0.128E-03 .21587E-02 0.227E+02 0.996E+00 0.000E+00 0.000E+00 0.000E+00
BIGSUB   4        0    5.18489E+00 0.257E+02 0.000E+00 0.574E+01 0.456E+01 0.906E+02 0.000E+00 0.410E+01 0.000E+00 0.158E+02 0.621E+00 0.112E+01 0.137E+00 0.368E-03 0.287E-03 0.110E+00 0.117E+02 0.182E-01 0.100E-11 .30338E-02 0.389E+02 0.962E+00 0.000E+00 0.000E+00 0.000E+00
BIGSUB   5        0    5.20438E+00 0.257E+02 0.000E+00 0.574E+01 0.463E+01 0.994E+02 0.300E+01 0.396E+01 0.729E+00 0.156E+02 0.251E+00 0.794E+00 0.972E-01 0.217E-03 0.341E-03 0.768E-01 0.109E+02 0.255E-01 0.107E-03 .24579E-02 0.209E+02 0.963E+00 0.000E+00 0.000E+00 0.000E+00
BIGSUB   6        0    5.17925E+00 0.257E+02 0.000E+00 0.574E+01 0.459E+01 0.926E+02 0.168E+01 0.446E+01 0.347E+00 0.160E+02 0.355E+00 0.946E+00 0.116E+00 0.269E-03 0.357E-03 0.919E-01 0.112E+02 0.257E-01 0.316E-04 .29469E-02 0.279E+02 0.951E+00 0.000E+00 0.000E+00 0.000E+00
BIGSUB   7        0    5.19956E+00 0.257E+02 0.000E+00 0.574E+01 0.461E+01 0.952E+02 0.147E+01 0.424E+01 0.285E+00 0.160E+02 0.374E+00 0.939E+00 0.115E+00 0.268E-03 0.332E-03 0.912E-01 0.114E+02 0.254E-01 0.229E-04 .28725E-02 0.284E+02 0.969E+00 0.000E+00 0.000E+00 0.000E+00
BIGSUB   8        0    5.58278E-01 0.257E+02 0.000E+00 0.574E+01 0.457E+01 0.916E+02 0.000E+00 0.417E+01 0.000E+00 0.156E+02 0.478E+00 0.101E+01 0.124E+00 0.353E-03 0.308E-03 0.986E-01 0.114E+02 0.172E-01 0.100E-11 .29101E-02 0.330E+02 0.940E+00 0.000E+00 0.000E+00 0.000E+00
BIGSUB   9        0    5.38835E+00 0.257E+02 0.000E+00 0.574E+01 0.455E+01 0.901E+02 0.435E-01 0.406E+01 0.126E-01 0.158E+02 0.730E+00 0.120E+01 0.147E+00 0.375E-03 0.279E-03 0.118E+00 0.118E+02 0.186E-01 0.404E-05 .31624E-02 0.431E+02 0.971E+00 0.000E+00 0.000E+00 0.000E+00
BIGSUB  10        0    5.17761E+00 0.257E+02 0.000E+00 0.573E+01 0.456E+01 0.941E+02 0.582E+00 0.390E+01 0.171E+00 0.155E+02 0.603E+00 0.108E+01 0.132E+00 0.356E-03 0.277E-03 0.105E+00 0.114E+02 0.180E-01 0.700E-04 .28607E-02 0.372E+02 0.957E+00 0.000E+00 0.000E+00 0.000E+00
BIGSUB  11        0    5.14877E-01 0.257E+02 0.000E+00 0.573E+01 0.456E+01 0.111E+03 0.152E+01 0.304E+01 0.411E+00 0.151E+02 0.586E+00 0.927E+00 0.113E+00 0.280E-03 0.225E-03 0.909E-01 0.117E+02 0.196E-01 0.118E-03 .23593E-02 0.334E+02 0.100E+01 0.000E+00 0.000E+00 0.000E+00
BIGSUB   1        0    6.15760E+00 0.130E+01 0.000E+00 0.578E+01 0.378E+01 0.105E+03 0.107E-03 0.351E-02 0.197E+00 0.301E+01 0.271E-09 0.702E-04 0.859E-05 0.121E-06 0.864E-06 0.651E-05 0.280E+01 0.466E-02 0.164E-04 .11684E-07 0.000E+00 0.246E+00 0.000E+00 0.000E+00 0.000E+00
BIGSUB   2        0    6.14128E+00 0.130E+01 0.000E+00 0.577E+01 0.358E+01 0.906E+02 0.000E+00 0.100E-05 0.532E-01 0.419E+01 0.142E-09 0.114E-06 0.143E-07 0.100E-08 0.100E-08 0.818E-08 0.413E+01 0.650E-02 0.139E-04 .26894E-21 0.000E+00 0.342E+00 0.000E+00 0.000E+00 0.000E+00
BIGSUB   3        0    6.21095E+00 0.130E+01 0.000E+00 0.578E+01 0.379E+01 0.106E+03 0.000E+00 0.222E-04 0.718E+00 0.375E+01 0.140E-09 0.129E-06 0.162E-07 0.261E-08 0.867E-08 0.133E-07 0.299E+01 0.549E-02 0.127E-03 .76592E-15 0.000E+00 0.306E+00 0.000E+00 0.000E+00 0.000E+00
BIGSUB   4        0    6.18489E+00 0.130E+01 0.000E+00 0.577E+01 0.357E+01 0.882E+02 0.000E+00 0.100E-05 0.000E+00 0.409E+01 0.541E-10 0.100E-08 0.100E-08 0.100E-08 0.100E-08 0.200E-08 0.409E+01 0.627E-02 0.100E-11 .47867E-23 0.000E+00 0.334E+00 0.000E+00 0.000E+00 0.000E+00
BIGSUB   5        0    6.20438E+00 0.130E+01 0.000E+00 0.578E+01 0.369E+01 0.970E+02 0.133E-05 0.213E-03 0.727E+00 0.414E+01 0.191E-09 0.776E-05 0.950E-06 0.812E-08 0.524E-07 0.720E-06 0.338E+01 0.777E-02 0.106E-03 .42641E-09 0.000E+00 0.338E+00 0.000E+00 0.000E+00 0.000E+00
BIGSUB   6        0    6.17925E+00 0.130E+01 0.000E+00 0.577E+01 0.361E+01 0.902E+02 0.190E-04 0.124E-02 0.345E+00 0.426E+01 0.132E-09 0.241E-04 0.295E-05 0.440E-07 0.306E-06 0.225E-05 0.390E+01 0.886E-02 0.313E-04 .10964E-08 0.000E+00 0.348E+00 0.000E+00 0.000E+00 0.000E+00
BIGSUB   7        0    6.19956E+00 0.130E+01 0.000E+00 0.578E+01 0.364E+01 0.928E+02 0.170E-04 0.760E-03 0.199E+00 0.399E+01 0.168E-09 0.366E-05 0.449E-06 0.291E-07 0.198E-06 0.342E-06 0.377E+01 0.821E-02 0.172E-04 .20257E-09 0.000E+00 0.326E+00 0.000E+00 0.000E+00 0.000E+00
BIGSUB   8        0    6.58278E-01 0.130E+01 0.000E+00 0.577E+01 0.359E+01 0.892E+02 0.000E+00 0.100E-05 0.000E+00 0.399E+01 0.172E-09 0.100E-08 0.100E-08 0.100E-08 0.100E-08 0.200E-08 0.399E+01 0.592E-02 0.100E-11 .50171E-23 0.000E+00 0.326E+00 0.000E+00 0.000E+00 0.000E+00
BIGSUB   9        0    6.38835E+00 0.130E+01 0.000E+00 0.577E+01 0.357E+01 0.877E+02 0.524E-04 0.154E-02 0.126E-01 0.414E+01 0.677E-10 0.287E-04 0.351E-05 0.500E-07 0.382E-06 0.265E-05 0.412E+01 0.642E-02 0.402E-05 .11249E-07 0.000E+00 0.338E+00 0.000E+00 0.000E+00 0.000E+00
BIGSUB  10        0    6.17761E+00 0.130E+01 0.000E+00 0.576E+01 0.358E+01 0.917E+02 0.896E-04 0.315E-03 0.170E+00 0.424E+01 0.294E-09 0.132E-08 0.999E-09 0.845E-07 0.111E-06 0.200E-08 0.406E+01 0.631E-02 0.695E-04 .18709E-11 0.000E+00 0.346E+00 0.000E+00 0.000E+00 0.000E+00
BIGSUB  11        0    6.14877E-01 0.130E+01 0.000E+00 0.576E+01 0.364E+01 0.109E+03 0.000E+00 0.377E-04 0.410E+00 0.452E+01 0.201E-08 0.100E-08 0.100E-08 0.305E-07 0.187E-07 0.200E-08 0.409E+01 0.676E-02 0.118E-03 .75033E-15 0.000E+00 0.369E+00 0.000E+00 0.000E+00 0.000E+00
BIGSUB   1        0    7.15760E+00 0.000E+00 0.000E+00 0.576E+01 0.245E+01 0.103E+03 0.863E-07 0.118E-02 0.140E+00 0.110E+01 0.271E-09 0.588E-05 0.721E-06 0.444E-07 0.304E-06 0.548E-06 0.945E+00 0.158E-02 0.141E-04 .36540E-10 0.000E+00 0.908E-01 0.000E+00 0.000E+00 0.000E+00
BIGSUB   2        0    7.14128E+00 0.000E+00 0.000E+00 0.575E+01 0.225E+01 0.884E+02 0.000E+00 0.100E-05 0.529E-01 0.148E+01 0.142E-09 0.100E-08 0.100E-08 0.100E-08 0.100E-08 0.200E-08 0.142E+01 0.223E-02 0.137E-04 .38287E-22 0.000E+00 0.122E+00 0.000E+00 0.000E+00 0.000E+00
BIGSUB   3        0    7.21095E+00 0.000E+00 0.000E+00 0.576E+01 0.246E+01 0.103E+03 0.000E+00 0.181E-05 0.708E+00 0.171E+01 0.140E-09 0.100E-08 0.100E-08 0.106E-08 0.129E-08 0.200E-08 0.962E+00 0.173E-02 0.125E-03 .45901E-19 0.000E+00 0.141E+00 0.000E+00 0.000E+00 0.000E+00
BIGSUB   4        0    7.18489E+00 0.000E+00 0.000E+00 0.575E+01 0.224E+01 0.860E+02 0.000E+00 0.100E-05 0.000E+00 0.141E+01 0.541E-10 0.100E-08 0.100E-08 0.100E-08 0.100E-08 0.200E-08 0.140E+01 0.216E-02 0.100E-11 .40451E-22 0.000E+00 0.116E+00 0.000E+00 0.000E+00 0.000E+00
BIGSUB   5        0    7.20438E+00 0.000E+00 0.000E+00 0.576E+01 0.236E+01 0.946E+02 0.000E+00 0.108E-04 0.724E+00 0.189E+01 0.191E-09 0.344E-06 0.430E-07 0.133E-08 0.339E-08 0.338E-07 0.113E+01 0.260E-02 0.105E-03 .45839E-13 0.000E+00 0.156E+00 0.000E+00 0.000E+00 0.000E+00
BIGSUB   6        0    7.17925E+00 0.000E+00 0.000E+00 0.576E+01 0.227E+01 0.879E+02 0.379E-07 0.471E-03 0.344E+00 0.170E+01 0.132E-09 0.959E-06 0.118E-06 0.186E-07 0.124E-06 0.911E-07 0.134E+01 0.304E-02 0.309E-04 .12738E-10 0.000E+00 0.141E+00 0.000E+00 0.000E+00 0.000E+00
BIGSUB   7        0    7.19956E+00 0.000E+00 0.000E+00 0.576E+01 0.230E+01 0.904E+02 0.341E-07 0.409E-03 0.192E+00 0.149E+01 0.168E-09 0.147E-06 0.188E-07 0.164E-07 0.108E-06 0.155E-07 0.129E+01 0.280E-02 0.165E-04 .11388E-10 0.000E+00 0.124E+00 0.000E+00 0.000E+00 0.000E+00
BIGSUB   8        0    7.58278E-01 0.000E+00 0.000E+00 0.575E+01 0.226E+01 0.869E+02 0.000E+00 0.100E-05 0.000E+00 0.137E+01 0.172E-09 0.100E-08 0.100E-08 0.100E-08 0.100E-08 0.200E-08 0.137E+01 0.203E-02 0.100E-11 .42323E-22 0.000E+00 0.114E+00 0.000E+00 0.000E+00 0.000E+00
BIGSUB   9        0    7.38835E+00 0.000E+00 0.000E+00 0.575E+01 0.224E+01 0.855E+02 0.619E-07 0.333E-03 0.125E-01 0.143E+01 0.677E-10 0.400E-05 0.490E-06 0.117E-07 0.852E-07 0.371E-06 0.142E+01 0.220E-02 0.398E-05 .24216E-09 0.000E+00 0.119E+00 0.000E+00 0.000E+00 0.000E+00
BIGSUB  10        0    7.17761E+00 0.000E+00 0.000E+00 0.575E+01 0.225E+01 0.894E+02 0.000E+00 0.132E-03 0.169E+00 0.160E+01 0.294E-09 0.999E-09 0.999E-09 0.164E-07 0.411E-07 0.200E-08 0.142E+01 0.222E-02 0.687E-04 .49715E-13 0.000E+00 0.133E+00 0.000E+00 0.000E+00 0.000E+00
BIGSUB  11        0    7.14877E-01 0.000E+00 0.000E+00 0.575E+01 0.232E+01 0.106E+03 0.000E+00 0.114E-05 0.408E+00 0.183E+01 0.201E-08 0.100E-08 0.100E-08 0.111E-08 0.106E-08 0.200E-08 0.141E+01 0.233E-02 0.116E-03 .83602E-22 0.000E+00 0.152E+00 0.000E+00 0.000E+00 0.000E+00
BIGSUB   1        0    8.15760E+00 0.000E+00 0.000E+00 0.597E+01 0.206E+01 0.101E+03 0.000E+00 0.632E-03 0.907E-01 0.427E+00 0.271E-09 0.494E-06 0.613E-07 0.247E-07 0.166E-06 0.477E-07 0.325E+00 0.543E-03 0.127E-04 .70994E-11 0.000E+00 0.353E-01 0.000E+00 0.000E+00 0.000E+00
BIGSUB   2        0    8.14128E+00 0.000E+00 0.000E+00 0.597E+01 0.186E+01 0.865E+02 0.000E+00 0.100E-05 0.526E-01 0.545E+00 0.142E-09 0.100E-08 0.100E-08 0.100E-08 0.100E-08 0.200E-08 0.488E+00 0.767E-03 0.135E-04 .32021E-21 0.000E+00 0.450E-01 0.000E+00 0.000E+00 0.000E+00
BIGSUB   3        0    8.21095E+00 0.000E+00 0.000E+00 0.597E+01 0.206E+01 0.101E+03 0.000E+00 0.103E-05 0.698E+00 0.106E+01 0.140E-09 0.100E-08 0.100E-08 0.100E-08 0.101E-08 0.200E-08 0.326E+00 0.583E-03 0.122E-03 .21828E-21 0.000E+00 0.876E-01 0.000E+00 0.000E+00 0.000E+00
BIGSUB   4        0    8.18489E+00 0.000E+00 0.000E+00 0.597E+01 0.185E+01 0.841E+02 0.000E+00 0.100E-05 0.000E+00 0.485E+00 0.541E-10 0.100E-08 0.100E-08 0.100E-08 0.100E-08 0.200E-08 0.482E+00 0.740E-03 0.100E-11 .34013E-21 0.000E+00 0.401E-01 0.000E+00 0.000E+00 0.000E+00
BIGSUB   5        0    8.20438E+00 0.000E+00 0.000E+00 0.597E+01 0.196E+01 0.926E+02 0.000E+00 0.145E-05 0.720E+00 0.114E+01 0.191E-09 0.169E-07 0.294E-08 0.101E-08 0.111E-08 0.347E-08 0.387E+00 0.889E-03 0.103E-03 .46038E-17 0.000E+00 0.941E-01 0.000E+00 0.000E+00 0.000E+00
BIGSUB   6        0    8.17925E+00 0.000E+00 0.000E+00 0.597E+01 0.188E+01 0.860E+02 0.000E+00 0.273E-03 0.342E+00 0.818E+00 0.132E-09 0.392E-07 0.567E-08 0.113E-07 0.726E-07 0.554E-08 0.460E+00 0.105E-02 0.304E-04 .31210E-11 0.000E+00 0.676E-01 0.000E+00 0.000E+00 0.000E+00
BIGSUB   7        0    8.19956E+00 0.000E+00 0.000E+00 0.597E+01 0.191E+01 0.885E+02 0.000E+00 0.245E-03 0.180E+00 0.637E+00 0.168E-09 0.682E-08 0.171E-08 0.102E-07 0.652E-07 0.254E-08 0.441E+00 0.961E-03 0.155E-04 .28032E-11 0.000E+00 0.526E-01 0.000E+00 0.000E+00 0.000E+00
BIGSUB   8        0    8.58278E-01 0.000E+00 0.000E+00 0.597E+01 0.187E+01 0.851E+02 0.000E+00 0.100E-05 0.000E+00 0.475E+00 0.172E-09 0.100E-08 0.100E-08 0.100E-08 0.100E-08 0.200E-08 0.471E+00 0.699E-03 0.100E-11 .35406E-21 0.000E+00 0.393E-01 0.000E+00 0.000E+00 0.000E+00
BIGSUB   9        0    8.38835E+00 0.000E+00 0.000E+00 0.597E+01 0.185E+01 0.836E+02 0.000E+00 0.874E-04 0.125E-01 0.502E+00 0.677E-10 0.799E-06 0.986E-07 0.381E-08 0.231E-07 0.757E-07 0.487E+00 0.757E-03 0.392E-05 .62498E-11 0.000E+00 0.415E-01 0.000E+00 0.000E+00 0.000E+00
BIGSUB  10        0    8.17761E+00 0.000E+00 0.000E+00 0.597E+01 0.187E+01 0.876E+02 0.000E+00 0.733E-04 0.168E+00 0.683E+00 0.294E-09 0.999E-09 0.999E-09 0.536E-08 0.219E-07 0.200E-08 0.505E+00 0.788E-03 0.676E-04 .10021E-13 0.000E+00 0.565E-01 0.000E+00 0.000E+00 0.000E+00
BIGSUB  11        0    8.14877E-01 0.000E+00 0.000E+00 0.597E+01 0.193E+01 0.104E+03 0.000E+00 0.100E-05 0.406E+00 0.909E+00 0.201E-08 0.100E-08 0.100E-08 0.100E-08 0.100E-08 0.200E-08 0.484E+00 0.808E-03 0.115E-03 .24153E-21 0.000E+00 0.751E-01 0.000E+00 0.000E+00 0.000E+00
BIGSUB   1        0    9.15760E+00 0.709E+02 0.000E+00 0.428E+01 0.375E+01 0.109E+03 0.164E+01 0.290E+02 0.982E-01 0.516E+02 0.245E+01 0.667E+01 0.817E+00 0.156E-02 0.240E-02 0.638E+00 0.224E+02 0.441E-01 0.131E-04 .87401E-01 0.445E+03 0.190E+01 0.000E+00 0.000E+00 0.000E+00
BIGSUB   2        0    9.14128E+00 0.709E+02 0.000E+00 0.427E+01 0.367E+01 0.948E+02 0.373E+00 0.322E+02 0.528E-01 0.497E+02 0.536E+01 0.833E+01 0.102E+01 0.183E-02 0.216E-02 0.819E+00 0.175E+02 0.233E-01 0.137E-04 .14165E+00 0.819E+03 0.148E+01 0.000E+00 0.000E+00 0.000E+00
BIGSUB   3        0    9.21095E+00 0.709E+02 0.000E+00 0.428E+01 0.375E+01 0.109E+03 0.536E+01 0.289E+02 0.705E+00 0.481E+02 0.209E+01 0.611E+01 0.747E+00 0.140E-02 0.248E-02 0.584E+00 0.184E+02 0.384E-01 0.125E-03 .89682E-01 0.417E+03 0.161E+01 0.000E+00 0.000E+00 0.000E+00
BIGSUB   4        0    9.18489E+00 0.709E+02 0.000E+00 0.427E+01 0.368E+01 0.927E+02 0.000E+00 0.330E+02 0.000E+00 0.500E+02 0.374E+01 0.715E+01 0.874E+00 0.189E-02 0.227E-02 0.701E+00 0.170E+02 0.219E-01 0.100E-11 .12447E+00 0.637E+03 0.143E+01 0.000E+00 0.000E+00 0.000E+00
BIGSUB   5        0    9.20438E+00 0.709E+02 0.000E+00 0.427E+01 0.371E+01 0.100E+03 0.445E+01 0.316E+02 0.721E+00 0.487E+02 0.151E+01 0.534E+01 0.653E+00 0.127E-02 0.277E-02 0.513E+00 0.164E+02 0.343E-01 0.105E-03 .89278E-01 0.332E+03 0.144E+01 0.000E+00 0.000E+00 0.000E+00
BIGSUB   6        0    9.17925E+00 0.709E+02 0.000E+00 0.427E+01 0.369E+01 0.935E+02 0.202E+01 0.336E+02 0.342E+00 0.499E+02 0.198E+01 0.564E+01 0.691E+00 0.139E-02 0.265E-02 0.548E+00 0.160E+02 0.316E-01 0.308E-04 .10199E+00 0.404E+03 0.138E+01 0.000E+00 0.000E+00 0.000E+00
BIGSUB   7        0    9.19956E+00 0.709E+02 0.000E+00 0.427E+01 0.370E+01 0.961E+02 0.202E+01 0.328E+02 0.188E+00 0.499E+02 0.216E+01 0.588E+01 0.720E+00 0.142E-02 0.256E-02 0.570E+00 0.169E+02 0.335E-01 0.162E-04 .10233E+00 0.429E+03 0.144E+01 0.000E+00 0.000E+00 0.000E+00
BIGSUB   8        0    9.58278E-01 0.709E+02 0.000E+00 0.427E+01 0.368E+01 0.935E+02 0.249E+00 0.333E+02 0.000E+00 0.500E+02 0.285E+01 0.641E+01 0.783E+00 0.184E-02 0.242E-02 0.625E+00 0.167E+02 0.241E-01 0.100E-11 .11348E+00 0.525E+03 0.141E+01 0.000E+00 0.000E+00 0.000E+00
BIGSUB   9        0    9.38835E+00 0.709E+02 0.000E+00 0.427E+01 0.367E+01 0.920E+02 0.684E-01 0.328E+02 0.125E-01 0.501E+02 0.443E+01 0.772E+01 0.943E+00 0.192E-02 0.221E-02 0.758E+00 0.173E+02 0.226E-01 0.398E-05 .13237E+00 0.717E+03 0.145E+01 0.000E+00 0.000E+00 0.000E+00
BIGSUB  10        0    9.17761E+00 0.709E+02 0.000E+00 0.427E+01 0.367E+01 0.960E+02 0.113E+01 0.321E+02 0.169E+00 0.490E+02 0.366E+01 0.699E+01 0.853E+00 0.187E-02 0.232E-02 0.684E+00 0.168E+02 0.219E-01 0.687E-04 .12019E+00 0.617E+03 0.143E+01 0.000E+00 0.000E+00 0.000E+00
BIGSUB  11        0    9.14877E-01 0.709E+02 0.000E+00 0.427E+01 0.367E+01 0.113E+03 0.282E+01 0.285E+02 0.407E+00 0.472E+02 0.362E+01 0.648E+01 0.792E+00 0.175E-02 0.249E-02 0.633E+00 0.183E+02 0.268E-01 0.117E-03 .10424E+00 0.568E+03 0.159E+01 0.000E+00 0.000E+00 0.000E+00
BIGSUB   1        0   10.15760E+00 0.498E+02 0.000E+00 0.414E+01 0.366E+01 0.109E+03 0.250E+01 0.163E+02 0.108E+00 0.417E+02 0.533E-04 0.469E+01 0.574E+00 0.820E-03 0.127E-02 0.450E+00 0.254E+02 0.558E-01 0.139E-04 .31516E-01 0.163E-01 0.353E+01 0.000E+00 0.000E+00 0.000E+00
BIGSUB   2        0   10.14128E+00 0.498E+02 0.000E+00 0.413E+01 0.360E+01 0.964E+02 0.753E+00 0.187E+02 0.534E-01 0.412E+02 0.142E-09 0.603E+01 0.737E+00 0.112E-02 0.119E-02 0.593E+00 0.225E+02 0.462E-01 0.144E-04 .50860E-01 0.118E-07 0.349E+01 0.000E+00 0.000E+00 0.000E+00
BIGSUB   3        0   10.21095E+00 0.498E+02 0.000E+00 0.414E+01 0.367E+01 0.109E+03 0.599E+01 0.162E+02 0.719E+00 0.389E+02 0.140E-09 0.438E+01 0.537E+00 0.725E-03 0.129E-02 0.420E+00 0.220E+02 0.497E-01 0.130E-03 .32071E-01 0.306E-07 0.329E+01 0.000E+00 0.000E+00 0.000E+00
BIGSUB   4        0   10.18489E+00 0.498E+02 0.000E+00 0.413E+01 0.360E+01 0.936E+02 0.874E+00 0.193E+02 0.000E+00 0.417E+02 0.541E-10 0.539E+01 0.659E+00 0.117E-02 0.128E-02 0.528E+00 0.223E+02 0.490E-01 0.100E-11 .46372E-01 0.579E-08 0.353E+01 0.000E+00 0.000E+00 0.000E+00
BIGSUB   5        0   10.20438E+00 0.498E+02 0.000E+00 0.414E+01 0.363E+01 0.100E+03 0.543E+01 0.180E+02 0.730E+00 0.393E+02 0.191E-09 0.402E+01 0.492E+00 0.680E-03 0.150E-02 0.386E+00 0.205E+02 0.452E-01 0.110E-03 .34591E-01 0.470E-07 0.332E+01 0.000E+00 0.000E+00 0.000E+00
BIGSUB   6        0   10.17925E+00 0.498E+02 0.000E+00 0.414E+01 0.360E+01 0.936E+02 0.309E+01 0.195E+02 0.347E+00 0.408E+02 0.225E-05 0.435E+01 0.532E+00 0.803E-03 0.148E-02 0.422E+00 0.209E+02 0.480E-01 0.326E-04 .39678E-01 0.655E-03 0.345E+01 0.000E+00 0.000E+00 0.000E+00
BIGSUB   7        0   10.19956E+00 0.498E+02 0.000E+00 0.414E+01 0.361E+01 0.962E+02 0.301E+01 0.189E+02 0.198E+00 0.408E+02 0.202E-05 0.446E+01 0.547E+00 0.812E-03 0.141E-02 0.433E+00 0.216E+02 0.497E-01 0.177E-04 .39132E-01 0.589E-03 0.345E+01 0.000E+00 0.000E+00 0.000E+00
BIGSUB   8        0   10.58278E-01 0.498E+02 0.000E+00 0.413E+01 0.360E+01 0.936E+02 0.148E+01 0.195E+02 0.000E+00 0.418E+02 0.172E-09 0.491E+01 0.600E+00 0.112E-02 0.136E-02 0.479E+00 0.223E+02 0.501E-01 0.100E-11 .42880E-01 0.198E-07 0.353E+01 0.000E+00 0.000E+00 0.000E+00
BIGSUB   9        0   10.38835E+00 0.498E+02 0.000E+00 0.413E+01 0.360E+01 0.936E+02 0.530E+00 0.191E+02 0.126E-01 0.414E+02 0.229E-04 0.571E+01 0.698E+00 0.118E-02 0.124E-02 0.561E+00 0.223E+02 0.456E-01 0.412E-05 .48738E-01 0.706E-02 0.350E+01 0.000E+00 0.000E+00 0.000E+00
BIGSUB  10        0   10.17761E+00 0.498E+02 0.000E+00 0.413E+01 0.359E+01 0.972E+02 0.172E+01 0.187E+02 0.171E+00 0.407E+02 0.294E-09 0.523E+01 0.639E+00 0.114E-02 0.128E-02 0.512E+00 0.218E+02 0.464E-01 0.715E-04 .44449E-01 0.219E-07 0.344E+01 0.000E+00 0.000E+00 0.000E+00
BIGSUB  11        0   10.14877E-01 0.498E+02 0.000E+00 0.413E+01 0.359E+01 0.114E+03 0.321E+01 0.159E+02 0.412E+00 0.396E+02 0.201E-08 0.469E+01 0.573E+00 0.968E-03 0.128E-02 0.459E+00 0.232E+02 0.461E-01 0.124E-03 .36877E-01 0.114E-06 0.335E+01 0.000E+00 0.000E+00 0.000E+00
BIGSUB   1        0   11.15760E+00 0.531E+02 0.000E+00 0.217E+01 0.215E+01 0.110E+03 0.262E+01 0.184E+02 0.121E+00 0.461E+02 0.202E+01 0.451E+01 0.551E+00 0.527E-03 0.140E-02 0.432E+00 0.275E+02 0.568E-01 0.152E-04 .30751E-01 0.241E+03 0.231E+01 0.000E+00 0.000E+00 0.000E+00
BIGSUB   2        0   11.14128E+00 0.531E+02 0.000E+00 0.217E+01 0.216E+01 0.979E+02 0.130E+01 0.215E+02 0.545E-01 0.468E+02 0.477E+01 0.556E+01 0.679E+00 0.785E-03 0.133E-02 0.547E+00 0.253E+02 0.691E-01 0.155E-04 .47849E-01 0.484E+03 0.212E+01 0.000E+00 0.000E+00 0.000E+00
BIGSUB   3        0   11.21095E+00 0.531E+02 0.000E+00 0.217E+01 0.215E+01 0.111E+03 0.628E+01 0.184E+02 0.740E+00 0.431E+02 0.176E+01 0.422E+01 0.517E+00 0.463E-03 0.142E-02 0.404E+00 0.239E+02 0.510E-01 0.139E-03 .31522E-01 0.229E+03 0.207E+01 0.000E+00 0.000E+00 0.000E+00
BIGSUB   4        0   11.18489E+00 0.531E+02 0.000E+00 0.217E+01 0.216E+01 0.950E+02 0.123E+01 0.220E+02 0.000E+00 0.469E+02 0.331E+01 0.503E+01 0.615E+00 0.819E-03 0.141E-02 0.493E+00 0.249E+02 0.620E-01 0.100E-11 .44115E-01 0.373E+03 0.209E+01 0.000E+00 0.000E+00 0.000E+00
BIGSUB   5        0   11.20438E+00 0.531E+02 0.000E+00 0.217E+01 0.215E+01 0.102E+03 0.566E+01 0.204E+02 0.744E+00 0.436E+02 0.128E+01 0.388E+01 0.475E+00 0.432E-03 0.165E-02 0.373E+00 0.225E+02 0.463E-01 0.118E-03 .34121E-01 0.189E+03 0.194E+01 0.000E+00 0.000E+00 0.000E+00
BIGSUB   6        0   11.17925E+00 0.531E+02 0.000E+00 0.217E+01 0.216E+01 0.950E+02 0.322E+01 0.220E+02 0.355E+00 0.455E+02 0.172E+01 0.413E+01 0.506E+00 0.528E-03 0.161E-02 0.401E+00 0.232E+02 0.511E-01 0.358E-04 .38449E-01 0.234E+03 0.197E+01 0.000E+00 0.000E+00 0.000E+00
BIGSUB   7        0   11.19956E+00 0.531E+02 0.000E+00 0.217E+01 0.215E+01 0.976E+02 0.314E+01 0.214E+02 0.212E+00 0.454E+02 0.186E+01 0.424E+01 0.519E+00 0.533E-03 0.155E-02 0.411E+00 0.239E+02 0.527E-01 0.200E-04 .37829E-01 0.246E+03 0.202E+01 0.000E+00 0.000E+00 0.000E+00
BIGSUB   8        0   11.58278E-01 0.531E+02 0.000E+00 0.217E+01 0.216E+01 0.950E+02 0.154E+01 0.220E+02 0.000E+00 0.467E+02 0.250E+01 0.460E+01 0.562E+00 0.779E-03 0.149E-02 0.449E+00 0.247E+02 0.565E-01 0.100E-11 .40722E-01 0.303E+03 0.207E+01 0.000E+00 0.000E+00 0.000E+00
BIGSUB   9        0   11.38835E+00 0.531E+02 0.000E+00 0.217E+01 0.216E+01 0.950E+02 0.114E+01 0.220E+02 0.128E-01 0.470E+02 0.394E+01 0.534E+01 0.652E+00 0.838E-03 0.139E-02 0.524E+00 0.250E+02 0.670E-01 0.432E-05 .46621E-01 0.424E+03 0.209E+01 0.000E+00 0.000E+00 0.000E+00
BIGSUB  10        0   11.17761E+00 0.531E+02 0.000E+00 0.218E+01 0.216E+01 0.986E+02 0.224E+01 0.213E+02 0.174E+00 0.460E+02 0.325E+01 0.491E+01 0.600E+00 0.805E-03 0.143E-02 0.481E+00 0.245E+02 0.623E-01 0.760E-04 .42607E-01 0.363E+03 0.207E+01 0.000E+00 0.000E+00 0.000E+00
BIGSUB  11        0   11.14877E-01 0.531E+02 0.000E+00 0.218E+01 0.216E+01 0.115E+03 0.372E+01 0.184E+02 0.420E+00 0.448E+02 0.321E+01 0.440E+01 0.538E+00 0.674E-03 0.145E-02 0.430E+00 0.260E+02 0.637E-01 0.134E-03 .35103E-01 0.332E+03 0.222E+01 0.000E+00 0.000E+00 0.000E+00
BIGSUB   1        0   12.15760E+00 0.389E+02 0.000E+00 0.187E+01 0.186E+01 0.111E+03 0.242E+01 0.991E+01 0.137E+00 0.349E+02 0.508E-05 0.180E+01 0.220E+00 0.257E-03 0.718E-03 0.173E+00 0.249E+02 0.492E-01 0.169E-04 .68614E-02 0.147E-02 0.291E+01 0.000E+00 0.000E+00 0.000E+00
BIGSUB   2        0   12.14128E+00 0.389E+02 0.000E+00 0.188E+01 0.186E+01 0.982E+02 0.124E+01 0.119E+02 0.559E-01 0.362E+02 0.142E-09 0.231E+01 0.283E+00 0.410E-03 0.710E-03 0.228E+00 0.242E+02 0.720E-01 0.169E-04 .10474E-01 0.860E-08 0.302E+01 0.000E+00 0.000E+00 0.000E+00
BIGSUB   3        0   12.21095E+00 0.389E+02 0.000E+00 0.187E+01 0.186E+01 0.111E+03 0.545E+01 0.984E+01 0.766E+00 0.326E+02 0.140E-09 0.172E+01 0.210E+00 0.232E-03 0.719E-03 0.165E+00 0.220E+02 0.450E-01 0.151E-03 .69261E-02 0.214E-07 0.272E+01 0.000E+00 0.000E+00 0.000E+00
BIGSUB   4        0   12.18489E+00 0.389E+02 0.000E+00 0.187E+01 0.186E+01 0.953E+02 0.123E+01 0.123E+02 0.000E+00 0.361E+02 0.541E-10 0.216E+01 0.264E+00 0.435E-03 0.765E-03 0.211E+00 0.238E+02 0.616E-01 0.100E-11 .99962E-02 0.472E-08 0.301E+01 0.000E+00 0.000E+00 0.000E+00
BIGSUB   5        0   12.20438E+00 0.389E+02 0.000E+00 0.187E+01 0.186E+01 0.102E+03 0.509E+01 0.112E+02 0.763E+00 0.330E+02 0.191E-09 0.166E+01 0.204E+00 0.221E-03 0.869E-03 0.160E+00 0.210E+02 0.410E-01 0.129E-03 .80329E-02 0.358E-07 0.275E+01 0.000E+00 0.000E+00 0.000E+00
BIGSUB   6        0   12.17925E+00 0.389E+02 0.000E+00 0.187E+01 0.186E+01 0.953E+02 0.304E+01 0.123E+02 0.366E+00 0.347E+02 0.590E-06 0.182E+01 0.223E+00 0.273E-03 0.876E-03 0.177E+00 0.220E+02 0.470E-01 0.400E-04 .91408E-02 0.204E-07 0.290E+01 0.000E+00 0.000E+00 0.000E+00
BIGSUB   7        0   12.19956E+00 0.389E+02 0.000E+00 0.187E+01 0.186E+01 0.979E+02 0.293E+01 0.119E+02 0.229E+00 0.346E+02 0.530E-06 0.184E+01 0.225E+00 0.274E-03 0.832E-03 0.179E+00 0.225E+02 0.483E-01 0.231E-04 .88772E-02 0.219E-07 0.289E+01 0.000E+00 0.000E+00 0.000E+00
BIGSUB   8        0   12.58278E-01 0.389E+02 0.000E+00 0.187E+01 0.186E+01 0.953E+02 0.152E+01 0.123E+02 0.000E+00 0.358E+02 0.172E-09 0.200E+01 0.244E+00 0.415E-03 0.807E-03 0.195E+00 0.236E+02 0.539E-01 0.100E-11 .94033E-02 0.162E-07 0.299E+01 0.000E+00 0.000E+00 0.000E+00
BIGSUB   9        0   12.38835E+00 0.389E+02 0.000E+00 0.188E+01 0.186E+01 0.953E+02 0.114E+01 0.123E+02 0.131E-01 0.362E+02 0.288E-05 0.227E+01 0.277E+00 0.444E-03 0.751E-03 0.223E+00 0.239E+02 0.695E-01 0.457E-05 .10432E-01 0.819E-03 0.302E+01 0.000E+00 0.000E+00 0.000E+00
BIGSUB  10        0   12.17761E+00 0.389E+02 0.000E+00 0.188E+01 0.186E+01 0.989E+02 0.205E+01 0.119E+02 0.178E+00 0.355E+02 0.294E-09 0.209E+01 0.256E+00 0.427E-03 0.762E-03 0.205E+00 0.234E+02 0.630E-01 0.813E-04 .95738E-02 0.150E-07 0.296E+01 0.000E+00 0.000E+00 0.000E+00
BIGSUB  11        0   12.14877E-01 0.389E+02 0.000E+00 0.188E+01 0.186E+01 0.116E+03 0.324E+01 0.986E+01 0.430E+00 0.347E+02 0.201E-08 0.180E+01 0.220E+00 0.348E-03 0.714E-03 0.176E+00 0.244E+02 0.643E-01 0.147E-03 .75825E-02 0.830E-07 0.290E+01 0.000E+00 0.000E+00 0.000E+00
BIGSUB   1        0   13.15760E+00 0.150E+02 0.000E+00 0.190E+01 0.189E+01 0.111E+03 0.112E+01 0.577E+00 0.152E+00 0.150E+02 0.146E-01 0.384E-01 0.470E-02 0.271E-04 0.417E-04 0.374E-02 0.143E+02 0.278E-01 0.187E-04 .54462E-05 0.263E+00 0.121E+01 0.000E+00 0.000E+00 0.000E+00
BIGSUB   2        0   13.14128E+00 0.150E+02 0.000E+00 0.190E+01 0.189E+01 0.981E+02 0.575E+00 0.756E+00 0.573E-01 0.169E+02 0.453E-01 0.629E-01 0.769E-02 0.476E-04 0.428E-04 0.619E-02 0.160E+02 0.474E-01 0.183E-04 .55099E-05 0.641E+00 0.134E+01 0.000E+00 0.000E+00 0.000E+00
BIGSUB   3        0   13.21095E+00 0.150E+02 0.000E+00 0.190E+01 0.189E+01 0.111E+03 0.233E+01 0.554E+00 0.792E+00 0.147E+02 0.144E-01 0.380E-01 0.465E-02 0.256E-04 0.365E-04 0.370E-02 0.133E+02 0.266E-01 0.162E-03 .36241E-05 0.262E+00 0.118E+01 0.000E+00 0.000E+00 0.000E+00
BIGSUB   4        0   13.18489E+00 0.150E+02 0.000E+00 0.190E+01 0.189E+01 0.953E+02 0.603E+00 0.789E+00 0.000E+00 0.167E+02 0.316E-01 0.599E-01 0.732E-02 0.518E-04 0.479E-04 0.587E-02 0.159E+02 0.401E-01 0.100E-11 .53674E-05 0.499E+00 0.132E+01 0.000E+00 0.000E+00 0.000E+00
BIGSUB   5        0   13.20438E+00 0.150E+02 0.000E+00 0.190E+01 0.189E+01 0.102E+03 0.237E+01 0.687E+00 0.783E+00 0.149E+02 0.113E-01 0.394E-01 0.482E-02 0.257E-04 0.507E-04 0.382E-02 0.134E+02 0.250E-01 0.140E-03 .41265E-05 0.222E+00 0.119E+01 0.000E+00 0.000E+00 0.000E+00
BIGSUB   6        0   13.17925E+00 0.150E+02 0.000E+00 0.190E+01 0.189E+01 0.953E+02 0.151E+01 0.796E+00 0.378E+00 0.159E+02 0.163E-01 0.502E-01 0.614E-02 0.324E-04 0.565E-04 0.487E-02 0.147E+02 0.300E-01 0.445E-04 .52774E-05 0.311E+00 0.126E+01 0.000E+00 0.000E+00 0.000E+00
BIGSUB   7        0   13.19956E+00 0.150E+02 0.000E+00 0.190E+01 0.189E+01 0.979E+02 0.142E+01 0.755E+00 0.246E+00 0.157E+02 0.172E-01 0.500E-01 0.612E-02 0.321E-04 0.520E-04 0.486E-02 0.147E+02 0.304E-01 0.264E-04 .51499E-05 0.327E+00 0.125E+01 0.000E+00 0.000E+00 0.000E+00
BIGSUB   8        0   13.58278E-01 0.150E+02 0.000E+00 0.190E+01 0.189E+01 0.953E+02 0.746E+00 0.789E+00 0.000E+00 0.165E+02 0.237E-01 0.559E-01 0.683E-02 0.499E-04 0.506E-04 0.545E-02 0.157E+02 0.348E-01 0.100E-11 .51163E-05 0.407E+00 0.131E+01 0.000E+00 0.000E+00 0.000E+00
BIGSUB   9        0   13.38835E+00 0.150E+02 0.000E+00 0.190E+01 0.189E+01 0.953E+02 0.558E+00 0.795E+00 0.133E-01 0.168E+02 0.376E-01 0.628E-01 0.767E-02 0.527E-04 0.483E-04 0.616E-02 0.159E+02 0.457E-01 0.479E-05 .60860E-05 0.565E+00 0.133E+01 0.000E+00 0.000E+00 0.000E+00
BIGSUB  10        0   13.17761E+00 0.150E+02 0.000E+00 0.190E+01 0.189E+01 0.989E+02 0.919E+00 0.753E+00 0.181E+00 0.166E+02 0.308E-01 0.574E-01 0.702E-02 0.505E-04 0.469E-04 0.563E-02 0.157E+02 0.413E-01 0.864E-04 .51132E-05 0.482E+00 0.132E+01 0.000E+00 0.000E+00 0.000E+00
BIGSUB  11        0   13.14877E-01 0.150E+02 0.000E+00 0.190E+01 0.189E+01 0.116E+03 0.135E+01 0.555E+00 0.441E+00 0.168E+02 0.298E-01 0.452E-01 0.552E-02 0.360E-04 0.321E-04 0.444E-02 0.158E+02 0.414E-01 0.159E-03 .39405E-05 0.432E+00 0.135E+01 0.000E+00 0.000E+00 0.000E+00
BIGSUB   1        0   14.15760E+00 0.234E+02 0.000E+00 0.210E+01 0.209E+01 0.110E+03 0.169E+01 0.272E+01 0.169E+00 0.198E+02 0.105E+00 0.283E+00 0.346E-01 0.544E-04 0.185E-03 0.274E-01 0.168E+02 0.308E-01 0.207E-04 .36639E-03 0.608E+01 0.142E+01 0.000E+00 0.000E+00 0.000E+00
BIGSUB   2        0   14.14128E+00 0.234E+02 0.000E+00 0.210E+01 0.209E+01 0.980E+02 0.872E+00 0.355E+01 0.588E-01 0.203E+02 0.307E+00 0.432E+00 0.528E-01 0.912E-04 0.199E-03 0.425E-01 0.167E+02 0.490E-01 0.197E-04 .56064E-03 0.148E+02 0.140E+01 0.000E+00 0.000E+00 0.000E+00
BIGSUB   3        0   14.21095E+00 0.234E+02 0.000E+00 0.210E+01 0.209E+01 0.111E+03 0.365E+01 0.269E+01 0.819E+00 0.184E+02 0.101E+00 0.278E+00 0.340E-01 0.511E-04 0.180E-03 0.270E-01 0.149E+02 0.283E-01 0.173E-03 .36511E-03 0.604E+01 0.131E+01 0.000E+00 0.000E+00 0.000E+00
BIGSUB   4        0   14.18489E+00 0.234E+02 0.000E+00 0.210E+01 0.209E+01 0.951E+02 0.890E+00 0.369E+01 0.000E+00 0.203E+02 0.214E+00 0.411E+00 0.502E-01 0.101E-03 0.221E-03 0.402E-01 0.166E+02 0.409E-01 0.100E-11 .54511E-03 0.115E+02 0.138E+01 0.000E+00 0.000E+00 0.000E+00
BIGSUB   5        0   14.20438E+00 0.234E+02 0.000E+00 0.210E+01 0.209E+01 0.102E+03 0.356E+01 0.325E+01 0.806E+00 0.185E+02 0.779E-01 0.299E+00 0.367E-01 0.520E-04 0.239E-03 0.290E-01 0.144E+02 0.256E-01 0.151E-03 .44228E-03 0.549E+01 0.127E+01 0.000E+00 0.000E+00 0.000E+00
BIGSUB   6        0   14.17925E+00 0.234E+02 0.000E+00 0.210E+01 0.209E+01 0.951E+02 0.220E+01 0.369E+01 0.392E+00 0.194E+02 0.111E+00 0.351E+00 0.430E-01 0.637E-04 0.255E-03 0.341E-01 0.153E+02 0.301E-01 0.495E-04 .50867E-03 0.728E+01 0.131E+01 0.000E+00 0.000E+00 0.000E+00
BIGSUB   7        0   14.19956E+00 0.234E+02 0.000E+00 0.210E+01 0.209E+01 0.977E+02 0.210E+01 0.353E+01 0.265E+00 0.194E+02 0.117E+00 0.345E+00 0.423E-01 0.629E-04 0.237E-03 0.336E-01 0.156E+02 0.309E-01 0.303E-04 .49211E-03 0.748E+01 0.132E+01 0.000E+00 0.000E+00 0.000E+00
BIGSUB   8        0   14.58278E-01 0.234E+02 0.000E+00 0.210E+01 0.209E+01 0.951E+02 0.110E+01 0.369E+01 0.000E+00 0.201E+02 0.161E+00 0.383E+00 0.468E-01 0.987E-04 0.234E-03 0.374E-01 0.164E+02 0.353E-01 0.100E-11 .51849E-03 0.936E+01 0.137E+01 0.000E+00 0.000E+00 0.000E+00
BIGSUB   9        0   14.38835E+00 0.234E+02 0.000E+00 0.210E+01 0.209E+01 0.951E+02 0.824E+00 0.369E+01 0.136E-01 0.203E+02 0.254E+00 0.429E+00 0.525E-01 0.102E-03 0.217E-03 0.422E-01 0.166E+02 0.472E-01 0.503E-05 .56458E-03 0.130E+02 0.139E+01 0.000E+00 0.000E+00 0.000E+00
BIGSUB  10        0   14.17761E+00 0.234E+02 0.000E+00 0.210E+01 0.209E+01 0.987E+02 0.141E+01 0.352E+01 0.186E+00 0.200E+02 0.209E+00 0.394E+00 0.482E-01 0.990E-04 0.213E-03 0.387E-01 0.163E+02 0.423E-01 0.917E-04 .51957E-03 0.111E+02 0.138E+01 0.000E+00 0.000E+00 0.000E+00
BIGSUB  11        0   14.14877E-01 0.234E+02 0.000E+00 0.210E+01 0.209E+01 0.115E+03 0.215E+01 0.270E+01 0.452E+00 0.195E+02 0.203E+00 0.316E+00 0.386E-01 0.751E-04 0.166E-03 0.311E-01 0.164E+02 0.426E-01 0.172E-03 .40146E-03 0.996E+01 0.141E+01 0.000E+00 0.000E+00 0.000E+00
BIGSUB   1        0   15.15760E+00 0.175E+02 0.000E+00 0.245E+01 0.243E+01 0.110E+03 0.128E+01 0.104E+01 0.185E+00 0.151E+02 0.336E-05 0.170E+00 0.208E-01 0.246E-04 0.691E-04 0.165E-01 0.139E+02 0.246E-01 0.228E-04 .60892E-04 0.288E-03 0.126E+01 0.000E+00 0.000E+00 0.000E+00
BIGSUB   2        0   15.14128E+00 0.175E+02 0.000E+00 0.244E+01 0.243E+01 0.976E+02 0.656E+00 0.140E+01 0.604E-01 0.160E+02 0.142E-09 0.279E+00 0.340E-01 0.402E-04 0.764E-04 0.274E-01 0.145E+02 0.411E-01 0.212E-04 .91918E-04 0.146E-08 0.133E+01 0.000E+00 0.000E+00 0.000E+00
BIGSUB   3        0   15.21095E+00 0.175E+02 0.000E+00 0.245E+01 0.243E+01 0.110E+03 0.270E+01 0.102E+01 0.848E+00 0.144E+02 0.140E-09 0.169E+00 0.207E-01 0.234E-04 0.655E-04 0.165E-01 0.125E+02 0.231E-01 0.185E-03 .60309E-04 0.124E-08 0.120E+01 0.000E+00 0.000E+00 0.000E+00
BIGSUB   4        0   15.18489E+00 0.175E+02 0.000E+00 0.244E+01 0.243E+01 0.948E+02 0.681E+00 0.146E+01 0.000E+00 0.159E+02 0.541E-10 0.266E+00 0.325E-01 0.459E-04 0.860E-04 0.261E-01 0.144E+02 0.342E-01 0.100E-11 .89856E-04 0.124E-08 0.132E+01 0.000E+00 0.000E+00 0.000E+00
BIGSUB   5        0   15.20438E+00 0.175E+02 0.000E+00 0.245E+01 0.243E+01 0.102E+03 0.270E+01 0.127E+01 0.829E+00 0.145E+02 0.191E-09 0.189E+00 0.232E-01 0.256E-04 0.912E-04 0.183E-01 0.123E+02 0.210E-01 0.163E-03 .72995E-04 0.150E-08 0.120E+01 0.000E+00 0.000E+00 0.000E+00
BIGSUB   6        0   15.17925E+00 0.175E+02 0.000E+00 0.244E+01 0.243E+01 0.948E+02 0.170E+01 0.146E+01 0.406E+00 0.152E+02 0.524E-08 0.228E+00 0.279E-01 0.309E-04 0.995E-04 0.222E-01 0.133E+02 0.251E-01 0.548E-04 .84128E-04 0.596E-08 0.126E+01 0.000E+00 0.000E+00 0.000E+00
BIGSUB   7        0   15.19956E+00 0.175E+02 0.000E+00 0.245E+01 0.243E+01 0.974E+02 0.161E+01 0.139E+01 0.284E+00 0.151E+02 0.476E-08 0.222E+00 0.272E-01 0.300E-04 0.919E-04 0.216E-01 0.134E+02 0.256E-01 0.344E-04 .81457E-04 0.138E-08 0.126E+01 0.000E+00 0.000E+00 0.000E+00
BIGSUB   8        0   15.58278E-01 0.175E+02 0.000E+00 0.244E+01 0.243E+01 0.948E+02 0.843E+00 0.146E+01 0.000E+00 0.157E+02 0.172E-09 0.249E+00 0.304E-01 0.458E-04 0.910E-04 0.243E-01 0.142E+02 0.295E-01 0.100E-11 .85844E-04 0.427E-08 0.131E+01 0.000E+00 0.000E+00 0.000E+00
BIGSUB   9        0   15.38835E+00 0.175E+02 0.000E+00 0.244E+01 0.243E+01 0.948E+02 0.630E+00 0.146E+01 0.139E-01 0.159E+02 0.677E-10 0.278E+00 0.339E-01 0.457E-04 0.844E-04 0.273E-01 0.145E+02 0.396E-01 0.525E-05 .92828E-04 0.261E-08 0.133E+01 0.000E+00 0.000E+00 0.000E+00
BIGSUB  10        0   15.17761E+00 0.175E+02 0.000E+00 0.244E+01 0.243E+01 0.984E+02 0.105E+01 0.138E+01 0.190E+00 0.157E+02 0.294E-09 0.255E+00 0.311E-01 0.444E-04 0.819E-04 0.250E-01 0.141E+02 0.354E-01 0.968E-04 .85502E-04 0.128E-08 0.131E+01 0.000E+00 0.000E+00 0.000E+00
BIGSUB  11        0   15.14877E-01 0.175E+02 0.000E+00 0.244E+01 0.242E+01 0.115E+03 0.157E+01 0.103E+01 0.464E+00 0.155E+02 0.201E-08 0.201E+00 0.245E-01 0.313E-04 0.576E-04 0.198E-01 0.140E+02 0.355E-01 0.184E-03 .66016E-04 0.142E-07 0.129E+01 0.000E+00 0.000E+00 0.000E+00
BIGSUB   1        0   16.15760E+00 0.840E+01 0.000E+00 0.275E+01 0.273E+01 0.110E+03 0.461E+00 0.469E-02 0.201E+00 0.775E+01 0.934E-08 0.383E-04 0.468E-05 0.987E-07 0.113E-05 0.354E-05 0.754E+01 0.126E-01 0.249E-04 .74987E-07 0.000E+00 0.642E+00 0.000E+00 0.000E+00 0.000E+00
BIGSUB   2        0   16.14128E+00 0.840E+01 0.000E+00 0.275E+01 0.273E+01 0.973E+02 0.218E+00 0.100E-05 0.618E-01 0.883E+01 0.142E-09 0.286E-07 0.361E-08 0.100E-08 0.100E-08 0.283E-08 0.876E+01 0.221E-01 0.224E-04 .15211E-22 0.000E+00 0.731E+00 0.000E+00 0.000E+00 0.000E+00
BIGSUB   3        0   16.21095E+00 0.840E+01 0.000E+00 0.275E+01 0.273E+01 0.110E+03 0.101E+01 0.149E-05 0.874E+00 0.799E+01 0.140E-09 0.181E-08 0.110E-08 0.101E-08 0.115E-08 0.207E-08 0.708E+01 0.123E-01 0.195E-03 .15395E-18 0.000E+00 0.662E+00 0.000E+00 0.000E+00 0.000E+00
BIGSUB   4        0   16.18489E+00 0.840E+01 0.000E+00 0.275E+01 0.273E+01 0.945E+02 0.226E+00 0.100E-05 0.000E+00 0.872E+01 0.541E-10 0.100E-08 0.100E-08 0.100E-08 0.100E-08 0.200E-08 0.872E+01 0.185E-01 0.100E-11 .10510E-23 0.000E+00 0.723E+00 0.000E+00 0.000E+00 0.000E+00
BIGSUB   5        0   16.20438E+00 0.840E+01 0.000E+00 0.275E+01 0.273E+01 0.101E+03 0.103E+01 0.736E-04 0.851E+00 0.816E+01 0.191E-09 0.207E-06 0.256E-07 0.261E-08 0.164E-07 0.195E-07 0.728E+01 0.117E-01 0.174E-03 .79326E-12 0.000E+00 0.676E+00 0.000E+00 0.000E+00 0.000E+00
BIGSUB   6        0   16.17925E+00 0.840E+01 0.000E+00 0.275E+01 0.273E+01 0.945E+02 0.634E+00 0.193E-02 0.419E+00 0.851E+01 0.117E-08 0.104E-04 0.127E-05 0.411E-07 0.468E-06 0.963E-06 0.807E+01 0.141E-01 0.597E-04 .16515E-07 0.000E+00 0.705E+00 0.000E+00 0.000E+00 0.000E+00
BIGSUB   7        0   16.19956E+00 0.840E+01 0.000E+00 0.275E+01 0.273E+01 0.971E+02 0.591E+00 0.160E-02 0.302E+00 0.836E+01 0.110E-08 0.296E-05 0.363E-06 0.343E-07 0.395E-06 0.274E-06 0.804E+01 0.142E-01 0.383E-04 .14805E-07 0.000E+00 0.692E+00 0.000E+00 0.000E+00 0.000E+00
BIGSUB   8        0   16.58278E-01 0.840E+01 0.000E+00 0.275E+01 0.273E+01 0.945E+02 0.289E+00 0.100E-05 0.000E+00 0.862E+01 0.172E-09 0.100E-08 0.100E-08 0.100E-08 0.100E-08 0.200E-08 0.862E+01 0.162E-01 0.100E-11 .10754E-23 0.000E+00 0.714E+00 0.000E+00 0.000E+00 0.000E+00
BIGSUB   9        0   16.38835E+00 0.840E+01 0.000E+00 0.275E+01 0.274E+01 0.945E+02 0.209E+00 0.889E-03 0.142E-01 0.877E+01 0.677E-10 0.792E-05 0.969E-06 0.196E-07 0.205E-06 0.733E-06 0.875E+01 0.213E-01 0.543E-05 .57578E-09 0.000E+00 0.726E+00 0.000E+00 0.000E+00 0.000E+00
BIGSUB  10        0   16.17761E+00 0.840E+01 0.000E+00 0.276E+01 0.274E+01 0.981E+02 0.368E+00 0.112E-02 0.194E+00 0.880E+01 0.294E-09 0.124E-08 0.103E-08 0.327E-07 0.302E-06 0.202E-08 0.859E+01 0.192E-01 0.101E-03 .10602E-10 0.000E+00 0.729E+00 0.000E+00 0.000E+00 0.000E+00
BIGSUB  11        0   16.14877E-01 0.840E+01 0.000E+00 0.276E+01 0.274E+01 0.115E+03 0.553E+00 0.383E-05 0.475E+00 0.888E+01 0.201E-08 0.100E-08 0.100E-08 0.326E-08 0.218E-08 0.200E-08 0.838E+01 0.192E-01 0.195E-03 .24203E-18 0.000E+00 0.735E+00 0.000E+00 0.000E+00 0.000E+00
BIGSUB   1        0   17.15760E+00 0.323E+02 0.000E+00 0.294E+01 0.288E+01 0.110E+03 0.201E+01 0.636E+01 0.218E+00 0.250E+02 0.289E+00 0.705E+00 0.863E-01 0.791E-04 0.423E-03 0.680E-01 0.184E+02 0.297E-01 0.273E-04 .26271E-02 0.291E+02 0.157E+01 0.000E+00 0.000E+00 0.000E+00
BIGSUB   2        0   17.14128E+00 0.323E+02 0.000E+00 0.294E+01 0.286E+01 0.972E+02 0.997E+00 0.789E+01 0.635E-01 0.245E+02 0.772E+00 0.939E+00 0.115E+00 0.106E-03 0.429E-03 0.924E-01 0.166E+02 0.425E-01 0.239E-04 .40423E-02 0.679E+02 0.140E+01 0.000E+00 0.000E+00 0.000E+00
BIGSUB   3        0   17.21095E+00 0.323E+02 0.000E+00 0.294E+01 0.288E+01 0.110E+03 0.456E+01 0.632E+01 0.903E+00 0.230E+02 0.266E+00 0.679E+00 0.832E-01 0.733E-04 0.424E-03 0.655E-01 0.157E+02 0.269E-01 0.207E-03 .26383E-02 0.286E+02 0.140E+01 0.000E+00 0.000E+00 0.000E+00
BIGSUB   4        0   17.18489E+00 0.323E+02 0.000E+00 0.294E+01 0.286E+01 0.943E+02 0.985E+00 0.815E+01 0.000E+00 0.246E+02 0.537E+00 0.892E+00 0.109E+00 0.121E-03 0.470E-03 0.874E-01 0.164E+02 0.355E-01 0.100E-11 .39251E-02 0.526E+02 0.138E+01 0.000E+00 0.000E+00 0.000E+00
BIGSUB   5        0   17.20438E+00 0.323E+02 0.000E+00 0.294E+01 0.287E+01 0.101E+03 0.429E+01 0.735E+01 0.876E+00 0.230E+02 0.200E+00 0.684E+00 0.838E-01 0.779E-04 0.532E-03 0.660E-01 0.147E+02 0.235E-01 0.186E-03 .31115E-02 0.252E+02 0.131E+01 0.000E+00 0.000E+00 0.000E+00
BIGSUB   6        0   17.17925E+00 0.323E+02 0.000E+00 0.294E+01 0.286E+01 0.943E+02 0.254E+01 0.814E+01 0.435E+00 0.238E+02 0.278E+00 0.765E+00 0.937E-01 0.883E-04 0.543E-03 0.744E-01 0.152E+02 0.267E-01 0.655E-04 .35923E-02 0.330E+02 0.131E+01 0.000E+00 0.000E+00 0.000E+00
BIGSUB   7        0   17.19956E+00 0.323E+02 0.000E+00 0.294E+01 0.287E+01 0.969E+02 0.245E+01 0.784E+01 0.321E+00 0.238E+02 0.297E+00 0.765E+00 0.937E-01 0.865E-04 0.512E-03 0.743E-01 0.157E+02 0.278E-01 0.430E-04 .34856E-02 0.341E+02 0.134E+01 0.000E+00 0.000E+00 0.000E+00
BIGSUB   8        0   17.58278E-01 0.323E+02 0.000E+00 0.294E+01 0.286E+01 0.943E+02 0.123E+01 0.815E+01 0.000E+00 0.244E+02 0.404E+00 0.833E+00 0.102E+00 0.122E-03 0.499E-03 0.813E-01 0.162E+02 0.310E-01 0.100E-11 .37259E-02 0.428E+02 0.136E+01 0.000E+00 0.000E+00 0.000E+00
BIGSUB   9        0   17.38835E+00 0.323E+02 0.000E+00 0.294E+01 0.286E+01 0.943E+02 0.909E+00 0.814E+01 0.145E-01 0.246E+02 0.639E+00 0.931E+00 0.114E+00 0.119E-03 0.459E-03 0.915E-01 0.165E+02 0.408E-01 0.564E-05 .40652E-02 0.597E+02 0.138E+01 0.000E+00 0.000E+00 0.000E+00
BIGSUB  10        0   17.17761E+00 0.323E+02 0.000E+00 0.294E+01 0.286E+01 0.979E+02 0.167E+01 0.782E+01 0.198E+00 0.241E+02 0.526E+00 0.861E+00 0.105E+00 0.119E-03 0.463E-03 0.843E-01 0.161E+02 0.365E-01 0.106E-03 .37482E-02 0.509E+02 0.137E+01 0.000E+00 0.000E+00 0.000E+00
BIGSUB  11        0   17.14877E-01 0.323E+02 0.000E+00 0.294E+01 0.286E+01 0.115E+03 0.266E+01 0.634E+01 0.487E+00 0.232E+02 0.513E+00 0.713E+00 0.871E-01 0.101E-03 0.412E-03 0.699E-01 0.164E+02 0.375E-01 0.208E-03 .29150E-02 0.460E+02 0.142E+01 0.000E+00 0.000E+00 0.000E+00
BIGSUB   1        0   18.15760E+00 0.250E+01 0.000E+00 0.253E+01 0.250E+01 0.109E+03 0.138E-03 0.731E-02 0.234E+00 0.453E+01 0.631E-09 0.620E-04 0.759E-05 0.102E-06 0.168E-05 0.574E-05 0.428E+01 0.717E-02 0.295E-04 .46779E-07 0.000E+00 0.374E+00 0.000E+00 0.000E+00 0.000E+00
BIGSUB   2        0   18.14128E+00 0.250E+01 0.000E+00 0.253E+01 0.247E+01 0.965E+02 0.000E+00 0.100E-05 0.649E-01 0.624E+01 0.142E-09 0.572E-07 0.718E-08 0.100E-08 0.100E-08 0.818E-08 0.617E+01 0.146E-01 0.251E-04 .60785E-22 0.000E+00 0.515E+00 0.000E+00 0.000E+00 0.000E+00
BIGSUB   3        0   18.21095E+00 0.250E+01 0.000E+00 0.253E+01 0.250E+01 0.110E+03 0.000E+00 0.749E-04 0.929E+00 0.541E+01 0.140E-09 0.358E-05 0.439E-06 0.238E-08 0.244E-07 0.304E-06 0.444E+01 0.748E-02 0.217E-03 .13090E-10 0.000E+00 0.446E+00 0.000E+00 0.000E+00 0.000E+00
BIGSUB   4        0   18.18489E+00 0.250E+01 0.000E+00 0.253E+01 0.247E+01 0.937E+02 0.000E+00 0.100E-05 0.000E+00 0.611E+01 0.541E-10 0.100E-08 0.100E-08 0.100E-08 0.100E-08 0.200E-08 0.610E+01 0.122E-01 0.100E-11 .21449E-23 0.000E+00 0.504E+00 0.000E+00 0.000E+00 0.000E+00
BIGSUB   5        0   18.20438E+00 0.250E+01 0.000E+00 0.253E+01 0.251E+01 0.101E+03 0.171E-05 0.411E-03 0.897E+00 0.573E+01 0.191E-09 0.618E-05 0.756E-06 0.617E-08 0.943E-07 0.576E-06 0.480E+01 0.731E-02 0.196E-03 .76220E-09 0.000E+00 0.473E+00 0.000E+00 0.000E+00 0.000E+00
BIGSUB   6        0   18.17925E+00 0.250E+01 0.000E+00 0.253E+01 0.250E+01 0.938E+02 0.245E-04 0.264E-02 0.448E+00 0.604E+01 0.154E-09 0.202E-04 0.247E-05 0.385E-07 0.610E-06 0.187E-05 0.557E+01 0.919E-02 0.704E-04 .76349E-08 0.000E+00 0.498E+00 0.000E+00 0.000E+00 0.000E+00
BIGSUB   7        0   18.19956E+00 0.250E+01 0.000E+00 0.253E+01 0.250E+01 0.964E+02 0.220E-04 0.173E-02 0.339E+00 0.580E+01 0.188E-09 0.396E-05 0.485E-06 0.274E-07 0.420E-06 0.368E-06 0.544E+01 0.915E-02 0.471E-04 .54715E-08 0.000E+00 0.479E+00 0.000E+00 0.000E+00 0.000E+00
BIGSUB   8        0   18.58278E-01 0.250E+01 0.000E+00 0.253E+01 0.248E+01 0.937E+02 0.000E+00 0.100E-05 0.000E+00 0.602E+01 0.172E-09 0.100E-08 0.100E-08 0.100E-08 0.100E-08 0.200E-08 0.601E+01 0.107E-01 0.100E-11 .22086E-23 0.000E+00 0.497E+00 0.000E+00 0.000E+00 0.000E+00
BIGSUB   9        0   18.38835E+00 0.250E+01 0.000E+00 0.254E+01 0.247E+01 0.936E+02 0.675E-04 0.282E-02 0.147E-01 0.616E+01 0.677E-10 0.238E-04 0.291E-05 0.359E-07 0.646E-06 0.220E-05 0.614E+01 0.140E-01 0.579E-05 .20764E-07 0.000E+00 0.508E+00 0.000E+00 0.000E+00 0.000E+00
BIGSUB  10        0   18.17761E+00 0.250E+01 0.000E+00 0.254E+01 0.247E+01 0.973E+02 0.775E-03 0.129E-02 0.202E+00 0.627E+01 0.294E-09 0.168E-08 0.104E-08 0.119E-06 0.378E-06 0.200E-08 0.606E+01 0.127E-01 0.110E-03 .16014E-10 0.000E+00 0.517E+00 0.000E+00 0.000E+00 0.000E+00
BIGSUB  11        0   18.14877E-01 0.250E+01 0.000E+00 0.254E+01 0.248E+01 0.114E+03 0.000E+00 0.930E-04 0.498E+00 0.656E+01 0.201E-08 0.100E-08 0.100E-08 0.412E-07 0.396E-07 0.200E-08 0.605E+01 0.129E-01 0.218E-03 .43143E-14 0.000E+00 0.542E+00 0.000E+00 0.000E+00 0.000E+00
BIGSUB   1        0   19.15760E+00 0.107E+02 0.000E+00 0.221E+01 0.220E+01 0.110E+03 0.427E+00 0.511E-01 0.248E+00 0.685E+01 0.255E-02 0.551E-02 0.674E-03 0.234E-05 0.368E-05 0.537E-03 0.654E+01 0.837E-02 0.315E-04 .30326E-07 0.804E-02 0.567E+00 0.000E+00 0.000E+00 0.000E+00
BIGSUB   2        0   19.14128E+00 0.107E+02 0.000E+00 0.222E+01 0.221E+01 0.978E+02 0.141E+00 0.646E-01 0.662E-01 0.681E+01 0.782E-02 0.882E-02 0.108E-02 0.328E-05 0.334E-05 0.869E-03 0.668E+01 0.103E-01 0.261E-04 .34807E-07 0.197E-01 0.561E+00 0.000E+00 0.000E+00 0.000E+00
BIGSUB   3        0   19.21095E+00 0.107E+02 0.000E+00 0.221E+01 0.220E+01 0.111E+03 0.114E+01 0.480E-01 0.953E+00 0.690E+01 0.253E-02 0.549E-02 0.672E-03 0.222E-05 0.295E-05 0.535E-03 0.586E+01 0.799E-02 0.225E-03 .22661E-07 0.802E-02 0.571E+00 0.000E+00 0.000E+00 0.000E+00
BIGSUB   4        0   19.18489E+00 0.107E+02 0.000E+00 0.222E+01 0.220E+01 0.950E+02 0.127E+00 0.676E-01 0.000E+00 0.674E+01 0.546E-02 0.851E-02 0.104E-02 0.389E-05 0.380E-05 0.834E-03 0.667E+01 0.930E-02 0.100E-11 .34217E-07 0.154E-01 0.555E+00 0.000E+00 0.000E+00 0.000E+00
BIGSUB   5        0   19.20438E+00 0.107E+02 0.000E+00 0.221E+01 0.220E+01 0.102E+03 0.112E+01 0.603E-01 0.918E+00 0.685E+01 0.200E-02 0.626E-02 0.767E-03 0.267E-05 0.419E-05 0.607E-03 0.583E+01 0.786E-02 0.205E-03 .26171E-07 0.716E-02 0.566E+00 0.000E+00 0.000E+00 0.000E+00
BIGSUB   6        0   19.17925E+00 0.107E+02 0.000E+00 0.222E+01 0.220E+01 0.950E+02 0.605E+00 0.699E-01 0.461E+00 0.680E+01 0.288E-02 0.748E-02 0.916E-03 0.311E-05 0.476E-05 0.727E-03 0.626E+01 0.880E-02 0.749E-04 .32359E-07 0.962E-02 0.562E+00 0.000E+00 0.000E+00 0.000E+00
BIGSUB   7        0   19.19956E+00 0.107E+02 0.000E+00 0.222E+01 0.220E+01 0.976E+02 0.561E+00 0.662E-01 0.355E+00 0.675E+01 0.303E-02 0.727E-02 0.890E-03 0.296E-05 0.437E-05 0.707E-03 0.631E+01 0.886E-02 0.509E-04 .31884E-07 0.997E-02 0.557E+00 0.000E+00 0.000E+00 0.000E+00
BIGSUB   8        0   19.58278E-01 0.107E+02 0.000E+00 0.222E+01 0.220E+01 0.950E+02 0.196E+00 0.678E-01 0.000E+00 0.668E+01 0.414E-02 0.801E-02 0.979E-03 0.404E-05 0.406E-05 0.782E-03 0.661E+01 0.880E-02 0.100E-11 .33050E-07 0.126E-01 0.551E+00 0.000E+00 0.000E+00 0.000E+00
BIGSUB   9        0   19.38835E+00 0.107E+02 0.000E+00 0.222E+01 0.221E+01 0.950E+02 0.113E+00 0.680E-01 0.150E-01 0.676E+01 0.648E-02 0.883E-02 0.108E-02 0.376E-05 0.384E-05 0.868E-03 0.668E+01 0.100E-01 0.591E-05 .35650E-07 0.173E-01 0.557E+00 0.000E+00 0.000E+00 0.000E+00
BIGSUB  10        0   19.17761E+00 0.107E+02 0.000E+00 0.223E+01 0.221E+01 0.986E+02 0.315E+00 0.645E-01 0.205E+00 0.683E+01 0.532E-02 0.813E-02 0.993E-03 0.373E-05 0.375E-05 0.797E-03 0.655E+01 0.937E-02 0.113E-03 .32470E-07 0.148E-01 0.563E+00 0.000E+00 0.000E+00 0.000E+00
BIGSUB  11        0   19.14877E-01 0.107E+02 0.000E+00 0.223E+01 0.221E+01 0.115E+03 0.555E+00 0.474E-01 0.507E+00 0.700E+01 0.515E-02 0.636E-02 0.778E-03 0.252E-05 0.251E-05 0.626E-03 0.642E+01 0.954E-02 0.227E-03 .25071E-07 0.133E-01 0.578E+00 0.000E+00 0.000E+00 0.000E+00
BIGSUB   1        0   20.15760E+00 0.860E+01 0.000E+00 0.458E+01 0.394E+01 0.109E+03 0.526E+00 0.153E-02 0.262E+00 0.629E+01 0.271E-09 0.237E-05 0.291E-06 0.269E-07 0.371E-06 0.221E-06 0.601E+01 0.898E-02 0.334E-04 .19907E-08 0.000E+00 0.519E+00 0.000E+00 0.000E+00 0.000E+00
BIGSUB   2        0   20.14128E+00 0.860E+01 0.000E+00 0.457E+01 0.387E+01 0.962E+02 0.259E+00 0.100E-05 0.674E-01 0.639E+01 0.142E-09 0.100E-08 0.100E-08 0.100E-08 0.100E-08 0.200E-08 0.632E+01 0.131E-01 0.270E-04 .19585E-23 0.000E+00 0.528E+00 0.000E+00 0.000E+00 0.000E+00
BIGSUB   3        0   20.21095E+00 0.860E+01 0.000E+00 0.458E+01 0.395E+01 0.109E+03 0.111E+01 0.111E-05 0.975E+00 0.645E+01 0.140E-09 0.594E-08 0.160E-08 0.100E-08 0.103E-08 0.241E-08 0.544E+01 0.846E-02 0.233E-03 .41259E-19 0.000E+00 0.533E+00 0.000E+00 0.000E+00 0.000E+00
BIGSUB   4        0   20.18489E+00 0.860E+01 0.000E+00 0.457E+01 0.387E+01 0.933E+02 0.271E+00 0.100E-05 0.000E+00 0.631E+01 0.541E-10 0.100E-08 0.100E-08 0.100E-08 0.100E-08 0.200E-08 0.631E+01 0.113E-01 0.100E-11 .20066E-23 0.000E+00 0.521E+00 0.000E+00 0.000E+00 0.000E+00
BIGSUB   5        0   20.20438E+00 0.860E+01 0.000E+00 0.458E+01 0.391E+01 0.100E+03 0.114E+01 0.517E-05 0.936E+00 0.641E+01 0.191E-09 0.151E-07 0.254E-08 0.120E-08 0.191E-08 0.316E-08 0.543E+01 0.801E-02 0.213E-03 .22280E-15 0.000E+00 0.529E+00 0.000E+00 0.000E+00 0.000E+00
BIGSUB   6        0   20.17925E+00 0.860E+01 0.000E+00 0.458E+01 0.387E+01 0.933E+02 0.721E+00 0.658E-03 0.473E+00 0.637E+01 0.132E-09 0.466E-06 0.578E-07 0.120E-07 0.161E-06 0.448E-07 0.588E+01 0.931E-02 0.789E-04 .44341E-09 0.000E+00 0.525E+00 0.000E+00 0.000E+00 0.000E+00
BIGSUB   7        0   20.19956E+00 0.860E+01 0.000E+00 0.458E+01 0.389E+01 0.959E+02 0.672E+00 0.584E-03 0.371E+00 0.630E+01 0.168E-09 0.396E-06 0.493E-07 0.106E-07 0.143E-06 0.384E-07 0.592E+01 0.944E-02 0.545E-04 .39825E-09 0.000E+00 0.520E+00 0.000E+00 0.000E+00 0.000E+00
BIGSUB   8        0   20.58278E-01 0.860E+01 0.000E+00 0.457E+01 0.387E+01 0.933E+02 0.341E+00 0.100E-05 0.000E+00 0.625E+01 0.172E-09 0.100E-08 0.100E-08 0.100E-08 0.100E-08 0.200E-08 0.624E+01 0.102E-01 0.100E-11 .20480E-23 0.000E+00 0.516E+00 0.000E+00 0.000E+00 0.000E+00
BIGSUB   9        0   20.38835E+00 0.860E+01 0.000E+00 0.457E+01 0.387E+01 0.933E+02 0.251E+00 0.185E-03 0.152E-01 0.634E+01 0.677E-10 0.704E-06 0.870E-07 0.450E-08 0.444E-07 0.667E-07 0.633E+01 0.126E-01 0.601E-05 .15475E-10 0.000E+00 0.524E+00 0.000E+00 0.000E+00 0.000E+00
BIGSUB  10        0   20.17761E+00 0.860E+01 0.000E+00 0.456E+01 0.386E+01 0.969E+02 0.422E+00 0.356E-03 0.208E+00 0.640E+01 0.294E-09 0.999E-09 0.999E-09 0.841E-08 0.943E-07 0.200E-08 0.618E+01 0.115E-01 0.116E-03 .29645E-12 0.000E+00 0.528E+00 0.000E+00 0.000E+00 0.000E+00
BIGSUB  11        0   20.14877E-01 0.860E+01 0.000E+00 0.456E+01 0.386E+01 0.114E+03 0.621E+00 0.100E-05 0.516E+00 0.653E+01 0.201E-08 0.100E-08 0.100E-08 0.100E-08 0.100E-08 0.200E-08 0.600E+01 0.115E-01 0.235E-03 .18823E-23 0.000E+00 0.539E+00 0.000E+00 0.000E+00 0.000E+00
BIGSUB   1        0   21.15760E+00 0.180E+01 0.000E+00 0.444E+01 0.335E+01 0.107E+03 0.413E-04 0.893E-03 0.274E+00 0.199E+01 0.271E-09 0.122E-05 0.151E-06 0.156E-07 0.218E-06 0.115E-06 0.170E+01 0.243E-02 0.349E-04 .48571E-09 0.000E+00 0.165E+00 0.000E+00 0.000E+00 0.000E+00
BIGSUB   2        0   21.14128E+00 0.180E+01 0.000E+00 0.444E+01 0.322E+01 0.944E+02 0.000E+00 0.100E-05 0.684E-01 0.249E+01 0.142E-09 0.100E-08 0.100E-08 0.100E-08 0.100E-08 0.200E-08 0.242E+01 0.451E-02 0.276E-04 .13130E-22 0.000E+00 0.206E+00 0.000E+00 0.000E+00 0.000E+00
BIGSUB   3        0   21.21095E+00 0.180E+01 0.000E+00 0.444E+01 0.336E+01 0.107E+03 0.000E+00 0.100E-05 0.995E+00 0.275E+01 0.140E-09 0.119E-08 0.102E-08 0.100E-08 0.100E-08 0.201E-08 0.171E+01 0.250E-02 0.238E-03 .13388E-22 0.000E+00 0.227E+00 0.000E+00 0.000E+00 0.000E+00
BIGSUB   4        0   21.18489E+00 0.180E+01 0.000E+00 0.444E+01 0.322E+01 0.915E+02 0.000E+00 0.100E-05 0.000E+00 0.241E+01 0.541E-10 0.100E-08 0.100E-08 0.100E-08 0.100E-08 0.200E-08 0.241E+01 0.389E-02 0.100E-11 .13729E-22 0.000E+00 0.200E+00 0.000E+00 0.000E+00 0.000E+00
BIGSUB   5        0   21.20438E+00 0.180E+01 0.000E+00 0.444E+01 0.330E+01 0.984E+02 0.510E-06 0.119E-05 0.953E+00 0.287E+01 0.191E-09 0.158E-08 0.107E-08 0.101E-08 0.104E-08 0.205E-08 0.188E+01 0.258E-02 0.219E-03 .21733E-19 0.000E+00 0.237E+00 0.000E+00 0.000E+00 0.000E+00
BIGSUB   6        0   21.17925E+00 0.180E+01 0.000E+00 0.444E+01 0.324E+01 0.916E+02 0.731E-05 0.391E-03 0.484E+00 0.271E+01 0.132E-09 0.264E-06 0.332E-07 0.738E-08 0.964E-07 0.262E-07 0.221E+01 0.321E-02 0.822E-04 .10819E-09 0.000E+00 0.224E+00 0.000E+00 0.000E+00 0.000E+00
BIGSUB   7        0   21.19956E+00 0.180E+01 0.000E+00 0.444E+01 0.325E+01 0.942E+02 0.657E-05 0.351E-03 0.385E+00 0.255E+01 0.168E-09 0.237E-06 0.298E-07 0.672E-08 0.867E-07 0.237E-07 0.215E+01 0.316E-02 0.576E-04 .97166E-10 0.000E+00 0.211E+00 0.000E+00 0.000E+00 0.000E+00
BIGSUB   8        0   21.58278E-01 0.180E+01 0.000E+00 0.444E+01 0.322E+01 0.916E+02 0.000E+00 0.100E-05 0.000E+00 0.238E+01 0.172E-09 0.100E-08 0.100E-08 0.100E-08 0.100E-08 0.200E-08 0.238E+01 0.351E-02 0.100E-11 .14108E-22 0.000E+00 0.197E+00 0.000E+00 0.000E+00 0.000E+00
BIGSUB   9        0   21.38835E+00 0.180E+01 0.000E+00 0.444E+01 0.321E+01 0.915E+02 0.202E-04 0.507E-04 0.154E-01 0.244E+01 0.677E-10 0.180E-06 0.229E-07 0.189E-08 0.128E-07 0.185E-07 0.242E+01 0.435E-02 0.606E-05 .37613E-12 0.000E+00 0.202E+00 0.000E+00 0.000E+00 0.000E+00
BIGSUB  10        0   21.17761E+00 0.180E+01 0.000E+00 0.444E+01 0.323E+01 0.952E+02 0.000E+00 0.212E-03 0.211E+00 0.262E+01 0.294E-09 0.999E-09 0.999E-09 0.452E-08 0.563E-07 0.200E-08 0.239E+01 0.399E-02 0.118E-03 .65449E-13 0.000E+00 0.216E+00 0.000E+00 0.000E+00 0.000E+00
BIGSUB  11        0   21.14877E-01 0.180E+01 0.000E+00 0.444E+01 0.326E+01 0.112E+03 0.000E+00 0.100E-05 0.524E+00 0.282E+01 0.201E-08 0.100E-08 0.100E-08 0.100E-08 0.100E-08 0.200E-08 0.228E+01 0.398E-02 0.240E-03 .11205E-22 0.000E+00 0.234E+00 0.000E+00 0.000E+00 0.000E+00
BIGSUB   1        0   22.15760E+00 0.810E+01 0.000E+00 0.437E+01 0.379E+01 0.108E+03 0.186E-01 0.536E-03 0.285E+00 0.311E+01 0.271E-09 0.721E-06 0.891E-07 0.972E-08 0.131E-06 0.683E-07 0.281E+01 0.129E-02 0.362E-04 .11324E-09 0.000E+00 0.258E+00 0.000E+00 0.000E+00 0.000E+00
BIGSUB   2        0   22.14128E+00 0.810E+01 0.000E+00 0.436E+01 0.372E+01 0.952E+02 0.000E+00 0.100E-05 0.692E-01 0.321E+01 0.142E-09 0.100E-08 0.100E-08 0.100E-08 0.100E-08 0.200E-08 0.314E+01 0.167E-02 0.280E-04 .78075E-23 0.000E+00 0.267E+00 0.000E+00 0.000E+00 0.000E+00
BIGSUB   3        0   22.21095E+00 0.810E+01 0.000E+00 0.437E+01 0.380E+01 0.109E+03 0.139E+00 0.100E-05 0.101E+01 0.354E+01 0.140E-09 0.101E-08 0.100E-08 0.100E-08 0.100E-08 0.200E-08 0.249E+01 0.142E-02 0.242E-03 .68617E-23 0.000E+00 0.294E+00 0.000E+00 0.000E+00 0.000E+00
BIGSUB   4        0   22.18489E+00 0.810E+01 0.000E+00 0.437E+01 0.372E+01 0.924E+02 0.000E+00 0.100E-05 0.000E+00 0.314E+01 0.541E-10 0.100E-08 0.100E-08 0.100E-08 0.100E-08 0.200E-08 0.313E+01 0.150E-02 0.100E-11 .81386E-23 0.000E+00 0.261E+00 0.000E+00 0.000E+00 0.000E+00
BIGSUB   5        0   22.20438E+00 0.810E+01 0.000E+00 0.437E+01 0.377E+01 0.100E+03 0.629E-01 0.101E-05 0.966E+00 0.348E+01 0.191E-09 0.103E-08 0.100E-08 0.100E-08 0.100E-08 0.200E-08 0.247E+01 0.142E-02 0.223E-03 .89658E-23 0.000E+00 0.289E+00 0.000E+00 0.000E+00 0.000E+00
BIGSUB   6        0   22.17925E+00 0.810E+01 0.000E+00 0.437E+01 0.374E+01 0.929E+02 0.900E-02 0.236E-03 0.493E+00 0.326E+01 0.132E-09 0.159E-06 0.203E-07 0.484E-08 0.585E-07 0.165E-07 0.274E+01 0.144E-02 0.846E-04 .25221E-10 0.000E+00 0.271E+00 0.000E+00 0.000E+00 0.000E+00
BIGSUB   7        0   22.19956E+00 0.810E+01 0.000E+00 0.437E+01 0.375E+01 0.955E+02 0.805E-02 0.212E-03 0.397E+00 0.318E+01 0.168E-09 0.143E-06 0.184E-07 0.445E-08 0.526E-07 0.151E-07 0.277E+01 0.145E-02 0.600E-04 .22652E-10 0.000E+00 0.264E+00 0.000E+00 0.000E+00 0.000E+00
BIGSUB   8        0   22.58278E-01 0.810E+01 0.000E+00 0.437E+01 0.372E+01 0.925E+02 0.000E+00 0.100E-05 0.000E+00 0.307E+01 0.172E-09 0.100E-08 0.100E-08 0.100E-08 0.100E-08 0.200E-08 0.306E+01 0.143E-02 0.100E-11 .85041E-23 0.000E+00 0.255E+00 0.000E+00 0.000E+00 0.000E+00
BIGSUB   9        0   22.38835E+00 0.810E+01 0.000E+00 0.436E+01 0.371E+01 0.924E+02 0.704E-02 0.151E-04 0.155E-01 0.318E+01 0.677E-10 0.506E-07 0.706E-08 0.124E-08 0.435E-08 0.656E-08 0.316E+01 0.161E-02 0.609E-05 .89430E-14 0.000E+00 0.264E+00 0.000E+00 0.000E+00 0.000E+00
BIGSUB  10        0   22.17761E+00 0.810E+01 0.000E+00 0.436E+01 0.372E+01 0.961E+02 0.462E-01 0.128E-03 0.213E+00 0.331E+01 0.294E-09 0.999E-09 0.999E-09 0.299E-08 0.342E-07 0.200E-08 0.308E+01 0.155E-02 0.118E-03 .14336E-13 0.000E+00 0.275E+00 0.000E+00 0.000E+00 0.000E+00
BIGSUB  11        0   22.14877E-01 0.810E+01 0.000E+00 0.436E+01 0.372E+01 0.113E+03 0.195E-01 0.100E-05 0.530E+00 0.347E+01 0.201E-08 0.100E-08 0.100E-08 0.100E-08 0.100E-08 0.200E-08 0.292E+01 0.158E-02 0.244E-03 .69894E-23 0.000E+00 0.288E+00 0.000E+00 0.000E+00 0.000E+00
BIGSUB   1        0   23.15760E+00 0.000E+00 0.000E+00 0.417E+01 0.229E+01 0.106E+03 0.173E-04 0.324E-03 0.295E+00 0.102E+01 0.271E-09 0.434E-06 0.540E-07 0.625E-08 0.795E-07 0.419E-07 0.714E+00 0.356E-03 0.371E-04 .25691E-10 0.000E+00 0.844E-01 0.000E+00 0.000E+00 0.000E+00
BIGSUB   2        0   23.14128E+00 0.000E+00 0.000E+00 0.418E+01 0.217E+01 0.931E+02 0.000E+00 0.100E-05 0.699E-01 0.115E+01 0.142E-09 0.100E-08 0.100E-08 0.100E-08 0.100E-08 0.200E-08 0.108E+01 0.575E-03 0.282E-04 .64792E-22 0.000E+00 0.951E-01 0.000E+00 0.000E+00 0.000E+00
BIGSUB   3        0   23.21095E+00 0.000E+00 0.000E+00 0.417E+01 0.230E+01 0.106E+03 0.000E+00 0.100E-05 0.102E+01 0.180E+01 0.140E-09 0.100E-08 0.100E-08 0.100E-08 0.100E-08 0.200E-08 0.733E+00 0.381E-03 0.243E-03 .38561E-22 0.000E+00 0.148E+00 0.000E+00 0.000E+00 0.000E+00
BIGSUB   4        0   23.18489E+00 0.000E+00 0.000E+00 0.417E+01 0.216E+01 0.903E+02 0.000E+00 0.100E-05 0.000E+00 0.108E+01 0.541E-10 0.100E-08 0.100E-08 0.100E-08 0.100E-08 0.200E-08 0.108E+01 0.514E-03 0.100E-11 .68649E-22 0.000E+00 0.891E-01 0.000E+00 0.000E+00 0.000E+00
BIGSUB   5        0   23.20438E+00 0.000E+00 0.000E+00 0.417E+01 0.223E+01 0.977E+02 0.213E-06 0.100E-05 0.977E+00 0.181E+01 0.191E-09 0.100E-08 0.100E-08 0.100E-08 0.100E-08 0.200E-08 0.796E+00 0.442E-03 0.226E-03 .27802E-22 0.000E+00 0.149E+00 0.000E+00 0.000E+00 0.000E+00
BIGSUB   6        0   23.17925E+00 0.000E+00 0.000E+00 0.417E+01 0.218E+01 0.908E+02 0.308E-05 0.143E-03 0.500E+00 0.146E+01 0.132E-09 0.962E-07 0.127E-07 0.331E-08 0.357E-07 0.108E-07 0.943E+00 0.497E-03 0.864E-04 .57220E-11 0.000E+00 0.121E+00 0.000E+00 0.000E+00 0.000E+00
BIGSUB   7        0   23.19956E+00 0.000E+00 0.000E+00 0.417E+01 0.220E+01 0.933E+02 0.277E-05 0.128E-03 0.408E+00 0.135E+01 0.168E-09 0.865E-07 0.115E-07 0.308E-08 0.321E-07 0.988E-08 0.923E+00 0.480E-03 0.619E-04 .51391E-11 0.000E+00 0.111E+00 0.000E+00 0.000E+00 0.000E+00
BIGSUB   8        0   23.58278E-01 0.000E+00 0.000E+00 0.418E+01 0.217E+01 0.904E+02 0.000E+00 0.100E-05 0.000E+00 0.106E+01 0.172E-09 0.100E-08 0.100E-08 0.100E-08 0.100E-08 0.200E-08 0.105E+01 0.493E-03 0.100E-11 .71541E-22 0.000E+00 0.873E-01 0.000E+00 0.000E+00 0.000E+00
BIGSUB   9        0   23.38835E+00 0.000E+00 0.000E+00 0.418E+01 0.216E+01 0.902E+02 0.849E-05 0.504E-05 0.157E-01 0.111E+01 0.677E-10 0.151E-07 0.273E-08 0.107E-08 0.196E-08 0.330E-08 0.109E+01 0.554E-03 0.608E-05 .21202E-15 0.000E+00 0.912E-01 0.000E+00 0.000E+00 0.000E+00
BIGSUB  10        0   23.17761E+00 0.000E+00 0.000E+00 0.418E+01 0.217E+01 0.939E+02 0.000E+00 0.776E-04 0.215E+00 0.130E+01 0.294E-09 0.999E-09 0.999E-09 0.218E-08 0.210E-07 0.200E-08 0.108E+01 0.547E-03 0.119E-03 .31313E-14 0.000E+00 0.107E+00 0.000E+00 0.000E+00 0.000E+00
BIGSUB  11        0   23.14877E-01 0.000E+00 0.000E+00 0.418E+01 0.221E+01 0.111E+03 0.000E+00 0.100E-05 0.535E+00 0.156E+01 0.201E-08 0.100E-08 0.100E-08 0.100E-08 0.100E-08 0.200E-08 0.100E+01 0.549E-03 0.246E-03 .50737E-22 0.000E+00 0.129E+00 0.000E+00 0.000E+00 0.000E+00
BIGSUB   1        0   24.15760E+00 0.000E+00 0.000E+00 0.475E+01 0.207E+01 0.104E+03 0.141E-07 0.195E-03 0.304E+00 0.561E+00 0.271E-09 0.262E-06 0.329E-07 0.416E-08 0.483E-07 0.260E-07 0.244E+00 0.122E-03 0.378E-04 .57379E-11 0.000E+00 0.467E-01 0.000E+00 0.000E+00 0.000E+00
BIGSUB   2        0   24.14128E+00 0.000E+00 0.000E+00 0.475E+01 0.192E+01 0.912E+02 0.000E+00 0.100E-05 0.704E-01 0.446E+00 0.142E-09 0.100E-08 0.100E-08 0.100E-08 0.100E-08 0.200E-08 0.370E+00 0.198E-03 0.283E-04 .54104E-21 0.000E+00 0.370E-01 0.000E+00 0.000E+00 0.000E+00
BIGSUB   3        0   24.21095E+00 0.000E+00 0.000E+00 0.475E+01 0.208E+01 0.104E+03 0.000E+00 0.100E-05 0.104E+01 0.132E+01 0.140E-09 0.100E-08 0.100E-08 0.100E-08 0.100E-08 0.200E-08 0.243E+00 0.123E-03 0.244E-03 .15887E-21 0.000E+00 0.110E+00 0.000E+00 0.000E+00 0.000E+00
BIGSUB   4        0   24.18489E+00 0.000E+00 0.000E+00 0.475E+01 0.191E+01 0.883E+02 0.000E+00 0.100E-05 0.000E+00 0.373E+00 0.541E-10 0.100E-08 0.100E-08 0.100E-08 0.100E-08 0.200E-08 0.370E+00 0.177E-03 0.100E-11 .57398E-21 0.000E+00 0.310E-01 0.000E+00 0.000E+00 0.000E+00
BIGSUB   5        0   24.20438E+00 0.000E+00 0.000E+00 0.475E+01 0.200E+01 0.957E+02 0.000E+00 0.100E-05 0.986E+00 0.129E+01 0.191E-09 0.100E-08 0.100E-08 0.100E-08 0.100E-08 0.200E-08 0.270E+00 0.149E-03 0.227E-03 .66752E-22 0.000E+00 0.107E+00 0.000E+00 0.000E+00 0.000E+00
BIGSUB   6        0   24.17925E+00 0.000E+00 0.000E+00 0.475E+01 0.193E+01 0.888E+02 0.620E-08 0.865E-04 0.506E+00 0.849E+00 0.132E-09 0.584E-07 0.802E-08 0.239E-08 0.219E-07 0.729E-08 0.324E+00 0.171E-03 0.875E-04 .12779E-11 0.000E+00 0.705E-01 0.000E+00 0.000E+00 0.000E+00
BIGSUB   7        0   24.19956E+00 0.000E+00 0.000E+00 0.475E+01 0.195E+01 0.913E+02 0.557E-08 0.778E-04 0.417E+00 0.750E+00 0.168E-09 0.526E-07 0.731E-08 0.225E-08 0.198E-07 0.675E-08 0.316E+00 0.164E-03 0.633E-04 .11477E-11 0.000E+00 0.623E-01 0.000E+00 0.000E+00 0.000E+00
BIGSUB   8        0   24.58278E-01 0.000E+00 0.000E+00 0.475E+01 0.191E+01 0.884E+02 0.000E+00 0.100E-05 0.000E+00 0.367E+00 0.172E-09 0.100E-08 0.100E-08 0.100E-08 0.100E-08 0.200E-08 0.361E+00 0.169E-03 0.100E-11 .59358E-21 0.000E+00 0.305E-01 0.000E+00 0.000E+00 0.000E+00
BIGSUB   9        0   24.38835E+00 0.000E+00 0.000E+00 0.475E+01 0.191E+01 0.883E+02 0.000E+00 0.216E-05 0.158E-01 0.392E+00 0.677E-10 0.506E-08 0.150E-08 0.102E-08 0.128E-08 0.237E-08 0.373E+00 0.190E-03 0.604E-05 .50373E-17 0.000E+00 0.326E-01 0.000E+00 0.000E+00 0.000E+00
BIGSUB  10        0   24.17761E+00 0.000E+00 0.000E+00 0.475E+01 0.192E+01 0.920E+02 0.000E+00 0.472E-04 0.216E+00 0.606E+00 0.294E-09 0.999E-09 0.999E-09 0.171E-08 0.130E-07 0.200E-08 0.379E+00 0.196E-03 0.118E-03 .68380E-15 0.000E+00 0.504E-01 0.000E+00 0.000E+00 0.000E+00
BIGSUB  11        0   24.14877E-01 0.000E+00 0.000E+00 0.475E+01 0.197E+01 0.109E+03 0.000E+00 0.100E-05 0.539E+00 0.907E+00 0.201E-08 0.100E-08 0.100E-08 0.100E-08 0.100E-08 0.200E-08 0.347E+00 0.195E-03 0.246E-03 .40200E-21 0.000E+00 0.754E-01 0.000E+00 0.000E+00 0.000E+00
BIGSUB   1        0   25.15760E+00 0.660E+01 0.000E+00 0.538E+01 0.377E+01 0.104E+03 0.000E+00 0.118E-03 0.311E+00 0.191E+01 0.271E-09 0.158E-06 0.202E-07 0.291E-08 0.295E-07 0.165E-07 0.158E+01 0.199E-03 0.383E-04 .12708E-11 0.000E+00 0.156E+00 0.000E+00 0.000E+00 0.000E+00
BIGSUB   2        0   25.14128E+00 0.660E+01 0.000E+00 0.538E+01 0.351E+01 0.916E+02 0.000E+00 0.100E-05 0.707E-01 0.191E+01 0.142E-09 0.100E-08 0.100E-08 0.100E-08 0.100E-08 0.200E-08 0.184E+01 0.229E-03 0.282E-04 .22241E-22 0.000E+00 0.157E+00 0.000E+00 0.000E+00 0.000E+00
BIGSUB   3        0   25.21095E+00 0.660E+01 0.000E+00 0.538E+01 0.385E+01 0.105E+03 0.000E+00 0.100E-05 0.104E+01 0.232E+01 0.140E-09 0.100E-08 0.100E-08 0.100E-08 0.100E-08 0.200E-08 0.124E+01 0.145E-03 0.243E-03 .18621E-22 0.000E+00 0.190E+00 0.000E+00 0.000E+00 0.000E+00
BIGSUB   4        0   25.18489E+00 0.660E+01 0.000E+00 0.538E+01 0.352E+01 0.888E+02 0.000E+00 0.100E-05 0.000E+00 0.183E+01 0.541E-10 0.100E-08 0.100E-08 0.100E-08 0.100E-08 0.200E-08 0.182E+01 0.230E-03 0.100E-11 .24016E-22 0.000E+00 0.149E+00 0.000E+00 0.000E+00 0.000E+00
BIGSUB   5        0   25.20438E+00 0.660E+01 0.000E+00 0.538E+01 0.386E+01 0.969E+02 0.000E+00 0.100E-05 0.992E+00 0.221E+01 0.191E-09 0.100E-08 0.100E-08 0.100E-08 0.100E-08 0.200E-08 0.118E+01 0.143E-03 0.227E-03 .17955E-22 0.000E+00 0.181E+00 0.000E+00 0.000E+00 0.000E+00
BIGSUB   6        0   25.17925E+00 0.660E+01 0.000E+00 0.538E+01 0.372E+01 0.897E+02 0.000E+00 0.525E-04 0.511E+00 0.195E+01 0.132E-09 0.356E-07 0.523E-08 0.184E-08 0.136E-07 0.519E-08 0.142E+01 0.169E-03 0.880E-04 .28302E-12 0.000E+00 0.160E+00 0.000E+00 0.000E+00 0.000E+00
BIGSUB   7        0   25.19956E+00 0.660E+01 0.000E+00 0.538E+01 0.372E+01 0.922E+02 0.000E+00 0.473E-04 0.425E+00 0.189E+01 0.168E-09 0.321E-07 0.480E-08 0.175E-08 0.123E-07 0.486E-08 0.144E+01 0.171E-03 0.642E-04 .25419E-12 0.000E+00 0.154E+00 0.000E+00 0.000E+00 0.000E+00
BIGSUB   8        0   25.58278E-01 0.660E+01 0.000E+00 0.538E+01 0.356E+01 0.890E+02 0.000E+00 0.100E-05 0.000E+00 0.174E+01 0.172E-09 0.100E-08 0.100E-08 0.100E-08 0.100E-08 0.200E-08 0.173E+01 0.221E-03 0.100E-11 .26404E-22 0.000E+00 0.142E+00 0.000E+00 0.000E+00 0.000E+00
BIGSUB   9        0   25.38835E+00 0.660E+01 0.000E+00 0.538E+01 0.350E+01 0.888E+02 0.000E+00 0.133E-05 0.158E-01 0.189E+01 0.677E-10 0.217E-08 0.114E-08 0.100E-08 0.108E-08 0.211E-08 0.187E+01 0.237E-03 0.597E-05 .12005E-18 0.000E+00 0.154E+00 0.000E+00 0.000E+00 0.000E+00
BIGSUB  10        0   25.17761E+00 0.660E+01 0.000E+00 0.537E+01 0.354E+01 0.925E+02 0.000E+00 0.288E-04 0.217E+00 0.201E+01 0.294E-09 0.999E-09 0.999E-09 0.143E-08 0.826E-08 0.200E-08 0.178E+01 0.237E-03 0.117E-03 .14951E-15 0.000E+00 0.165E+00 0.000E+00 0.000E+00 0.000E+00
BIGSUB  11        0   25.14877E-01 0.660E+01 0.000E+00 0.537E+01 0.361E+01 0.109E+03 0.000E+00 0.100E-05 0.541E+00 0.220E+01 0.201E-08 0.100E-08 0.100E-08 0.100E-08 0.100E-08 0.200E-08 0.164E+01 0.223E-03 0.245E-03 .18890E-22 0.000E+00 0.180E+00 0.000E+00 0.000E+00 0.000E+00
BIGSUB   1        0   26.15760E+00 0.000E+00 0.000E+00 0.500E+01 0.225E+01 0.102E+03 0.000E+00 0.717E-04 0.317E+00 0.720E+00 0.271E-09 0.958E-07 0.126E-07 0.215E-08 0.182E-07 0.107E-07 0.389E+00 0.465E-04 0.385E-04 .28035E-12 0.000E+00 0.590E-01 0.000E+00 0.000E+00 0.000E+00
BIGSUB   2        0   26.14128E+00 0.000E+00 0.000E+00 0.499E+01 0.205E+01 0.896E+02 0.000E+00 0.100E-05 0.710E-01 0.708E+00 0.142E-09 0.100E-08 0.100E-08 0.100E-08 0.100E-08 0.200E-08 0.632E+00 0.787E-04 0.279E-04 .18482E-21 0.000E+00 0.579E-01 0.000E+00 0.000E+00 0.000E+00
BIGSUB   3        0   26.21095E+00 0.000E+00 0.000E+00 0.500E+01 0.231E+01 0.103E+03 0.000E+00 0.100E-05 0.105E+01 0.148E+01 0.140E-09 0.100E-08 0.100E-08 0.100E-08 0.100E-08 0.200E-08 0.389E+00 0.458E-04 0.241E-03 .88017E-22 0.000E+00 0.121E+00 0.000E+00 0.000E+00 0.000E+00
BIGSUB   4        0   26.18489E+00 0.000E+00 0.000E+00 0.499E+01 0.205E+01 0.868E+02 0.000E+00 0.100E-05 0.000E+00 0.630E+00 0.541E-10 0.100E-08 0.100E-08 0.100E-08 0.100E-08 0.200E-08 0.626E+00 0.790E-04 0.100E-11 .20185E-21 0.000E+00 0.515E-01 0.000E+00 0.000E+00 0.000E+00
BIGSUB   5        0   26.20438E+00 0.000E+00 0.000E+00 0.499E+01 0.226E+01 0.946E+02 0.000E+00 0.100E-05 0.997E+00 0.142E+01 0.191E-09 0.100E-08 0.100E-08 0.100E-08 0.100E-08 0.200E-08 0.390E+00 0.473E-04 0.225E-03 .51561E-22 0.000E+00 0.117E+00 0.000E+00 0.000E+00 0.000E+00
BIGSUB   6        0   26.17925E+00 0.000E+00 0.000E+00 0.499E+01 0.215E+01 0.876E+02 0.000E+00 0.321E-04 0.515E+00 0.102E+01 0.132E-09 0.219E-07 0.355E-08 0.151E-08 0.859E-08 0.392E-08 0.489E+00 0.583E-04 0.880E-04 .62434E-13 0.000E+00 0.837E-01 0.000E+00 0.000E+00 0.000E+00
BIGSUB   7        0   26.19956E+00 0.000E+00 0.000E+00 0.499E+01 0.216E+01 0.900E+02 0.000E+00 0.289E-04 0.432E+00 0.934E+00 0.168E-09 0.197E-07 0.329E-08 0.145E-08 0.782E-08 0.372E-08 0.485E+00 0.574E-04 0.647E-04 .56074E-13 0.000E+00 0.765E-01 0.000E+00 0.000E+00 0.000E+00
BIGSUB   8        0   26.58278E-01 0.000E+00 0.000E+00 0.499E+01 0.207E+01 0.870E+02 0.000E+00 0.100E-05 0.000E+00 0.602E+00 0.172E-09 0.100E-08 0.100E-08 0.100E-08 0.100E-08 0.200E-08 0.596E+00 0.759E-04 0.100E-11 .22082E-21 0.000E+00 0.493E-01 0.000E+00 0.000E+00 0.000E+00
BIGSUB   9        0   26.38835E+00 0.000E+00 0.000E+00 0.499E+01 0.203E+01 0.867E+02 0.000E+00 0.110E-05 0.159E-01 0.661E+00 0.677E-10 0.134E-08 0.104E-08 0.100E-08 0.102E-08 0.203E-08 0.641E+00 0.815E-04 0.589E-05 .30610E-20 0.000E+00 0.541E-01 0.000E+00 0.000E+00 0.000E+00
BIGSUB  10        0   26.17761E+00 0.000E+00 0.000E+00 0.498E+01 0.206E+01 0.905E+02 0.000E+00 0.178E-04 0.217E+00 0.847E+00 0.294E-09 0.999E-09 0.999E-09 0.126E-08 0.538E-08 0.200E-08 0.618E+00 0.840E-04 0.116E-03 .32758E-16 0.000E+00 0.693E-01 0.000E+00 0.000E+00 0.000E+00
BIGSUB  11        0   26.14877E-01 0.000E+00 0.000E+00 0.498E+01 0.213E+01 0.107E+03 0.000E+00 0.100E-05 0.543E+00 0.113E+01 0.201E-08 0.100E-08 0.100E-08 0.100E-08 0.100E-08 0.200E-08 0.563E+00 0.813E-04 0.243E-03 .14023E-21 0.000E+00 0.923E-01 0.000E+00 0.000E+00 0.000E+00
BIGSUB   1        0   27.15760E+00 0.840E+01 0.000E+00 0.501E+01 0.378E+01 0.104E+03 0.210E-02 0.436E-04 0.323E+00 0.249E+01 0.271E-09 0.581E-07 0.799E-08 0.169E-08 0.114E-07 0.726E-08 0.215E+01 0.198E-03 0.385E-04 .61760E-13 0.000E+00 0.204E+00 0.000E+00 0.000E+00 0.000E+00
[...]
BIGSUB   6        0  360.17925E+00 0.239E+02 0.000E+00 0.384E+01 0.341E+01 0.937E+02 0.330E-01 0.309E+01 0.146E+00 0.101E+02 0.101E+00 0.200E+00 0.246E-01 0.245E-03 0.114E-03 0.188E-01 0.687E+01 0.357E-02 0.170E-04 .74673E-03 0.108E+02 0.592E+00 0.000E+00 0.000E+00 0.000E+00
BIGSUB   7        0  360.19956E+00 0.239E+02 0.000E+00 0.384E+01 0.341E+01 0.961E+02 0.965E-01 0.294E+01 0.724E-01 0.101E+02 0.105E+00 0.190E+00 0.233E-01 0.241E-03 0.103E-03 0.179E-01 0.709E+01 0.389E-02 0.977E-05 .70187E-03 0.110E+02 0.605E+00 0.000E+00 0.000E+00 0.000E+00
BIGSUB   8        0  360.58278E-01 0.239E+02 0.000E+00 0.383E+01 0.339E+01 0.928E+02 0.000E+00 0.309E+01 0.000E+00 0.106E+02 0.136E+00 0.195E+00 0.239E-01 0.304E-03 0.969E-04 0.183E-01 0.749E+01 0.302E-02 0.100E-11 .66420E-03 0.130E+02 0.631E+00 0.000E+00 0.000E+00 0.000E+00
BIGSUB   9        0  360.38835E+00 0.239E+02 0.000E+00 0.383E+01 0.339E+01 0.925E+02 0.257E-01 0.309E+01 0.105E-01 0.108E+02 0.205E+00 0.179E+00 0.219E-01 0.320E-03 0.760E-04 0.170E-01 0.769E+01 0.219E-02 0.500E-05 .58586E-03 0.173E+02 0.649E+00 0.000E+00 0.000E+00 0.000E+00
BIGSUB  10        0  360.17761E+00 0.239E+02 0.000E+00 0.383E+01 0.339E+01 0.963E+02 0.288E+00 0.294E+01 0.141E+00 0.106E+02 0.172E+00 0.177E+00 0.217E-01 0.305E-03 0.799E-04 0.168E-01 0.748E+01 0.238E-02 0.744E-04 .58433E-03 0.150E+02 0.644E+00 0.000E+00 0.000E+00 0.000E+00
BIGSUB  11        0  360.14877E-01 0.239E+02 0.000E+00 0.383E+01 0.339E+01 0.113E+03 0.506E+00 0.224E+01 0.334E+00 0.102E+02 0.163E+00 0.124E+00 0.152E-01 0.248E-03 0.608E-04 0.118E-01 0.757E+01 0.343E-02 0.104E-03 .39564E-03 0.133E+02 0.670E+00 0.000E+00 0.000E+00 0.000E+00
BIGSUB   1        0  361.15760E+00 0.460E+01 0.000E+00 0.289E+01 0.283E+01 0.109E+03 0.826E-02 0.468E-02 0.452E-01 0.293E+01 0.258E-08 0.324E-04 0.397E-05 0.220E-06 0.106E-05 0.285E-05 0.287E+01 0.108E-02 0.146E-04 .52988E-07 0.000E+00 0.242E+00 0.000E+00 0.000E+00 0.000E+00
BIGSUB   2        0  361.14128E+00 0.460E+01 0.000E+00 0.289E+01 0.278E+01 0.955E+02 0.000E+00 0.100E-05 0.442E-01 0.385E+01 0.142E-09 0.143E-07 0.183E-08 0.100E-08 0.100E-08 0.200E-08 0.380E+01 0.934E-03 0.137E-04 .41969E-22 0.000E+00 0.318E+00 0.000E+00 0.000E+00 0.000E+00
BIGSUB   3        0  361.21095E+00 0.460E+01 0.000E+00 0.289E+01 0.283E+01 0.109E+03 0.688E-01 0.867E-05 0.568E+00 0.341E+01 0.140E-09 0.179E-07 0.285E-08 0.194E-08 0.320E-08 0.309E-08 0.281E+01 0.132E-02 0.130E-03 .86323E-16 0.000E+00 0.282E+00 0.000E+00 0.000E+00 0.000E+00
BIGSUB   4        0  361.18489E+00 0.460E+01 0.000E+00 0.289E+01 0.280E+01 0.927E+02 0.000E+00 0.100E-05 0.000E+00 0.375E+01 0.541E-10 0.100E-08 0.100E-08 0.100E-08 0.100E-08 0.200E-08 0.375E+01 0.938E-03 0.100E-11 .56859E-23 0.000E+00 0.311E+00 0.000E+00 0.000E+00 0.000E+00
BIGSUB   5        0  361.20438E+00 0.460E+01 0.000E+00 0.289E+01 0.283E+01 0.101E+03 0.311E-01 0.143E-03 0.570E+00 0.352E+01 0.191E-09 0.260E-05 0.319E-06 0.127E-07 0.299E-07 0.230E-06 0.293E+01 0.173E-02 0.100E-03 .94441E-10 0.000E+00 0.292E+00 0.000E+00 0.000E+00 0.000E+00
BIGSUB   6        0  361.17925E+00 0.460E+01 0.000E+00 0.289E+01 0.282E+01 0.940E+02 0.395E-02 0.185E-02 0.159E+00 0.349E+01 0.357E-09 0.979E-05 0.120E-05 0.798E-07 0.427E-06 0.865E-06 0.332E+01 0.138E-02 0.185E-04 .10835E-07 0.000E+00 0.289E+00 0.000E+00 0.000E+00 0.000E+00
BIGSUB   7        0  361.19956E+00 0.460E+01 0.000E+00 0.289E+01 0.282E+01 0.964E+02 0.430E-02 0.142E-02 0.886E-01 0.339E+01 0.371E-09 0.158E-05 0.194E-06 0.529E-07 0.339E-06 0.139E-06 0.329E+01 0.137E-02 0.111E-04 .95292E-08 0.000E+00 0.281E+00 0.000E+00 0.000E+00 0.000E+00
BIGSUB   8        0  361.58278E-01 0.460E+01 0.000E+00 0.289E+01 0.281E+01 0.930E+02 0.000E+00 0.100E-05 0.000E+00 0.367E+01 0.172E-09 0.100E-08 0.100E-08 0.100E-08 0.100E-08 0.200E-08 0.366E+01 0.116E-02 0.100E-11 .59478E-23 0.000E+00 0.304E+00 0.000E+00 0.000E+00 0.000E+00
BIGSUB   9        0  361.38835E+00 0.460E+01 0.000E+00 0.289E+01 0.278E+01 0.926E+02 0.312E-02 0.110E-02 0.107E-01 0.382E+01 0.677E-10 0.750E-05 0.917E-06 0.903E-07 0.244E-06 0.662E-06 0.381E+01 0.876E-03 0.507E-05 .11301E-08 0.000E+00 0.316E+00 0.000E+00 0.000E+00 0.000E+00
BIGSUB  10        0  361.17761E+00 0.460E+01 0.000E+00 0.289E+01 0.279E+01 0.963E+02 0.218E-01 0.131E-02 0.145E+00 0.388E+01 0.294E-09 0.102E-08 0.100E-08 0.230E-06 0.359E-06 0.200E-08 0.372E+01 0.991E-03 0.768E-04 .22336E-10 0.000E+00 0.321E+00 0.000E+00 0.000E+00 0.000E+00
BIGSUB  11        0  361.14877E-01 0.460E+01 0.000E+00 0.289E+01 0.279E+01 0.113E+03 0.103E-01 0.222E-04 0.342E+00 0.402E+01 0.201E-08 0.100E-08 0.100E-08 0.827E-07 0.121E-07 0.200E-08 0.366E+01 0.133E-02 0.109E-03 .83770E-15 0.000E+00 0.333E+00 0.000E+00 0.000E+00 0.000E+00
BIGSUB   1        0  362.15760E+00 0.147E+02 0.000E+00 0.389E+01 0.350E+01 0.109E+03 0.547E+00 0.463E+00 0.505E-01 0.901E+01 0.139E-01 0.240E-01 0.294E-02 0.311E-04 0.162E-04 0.226E-02 0.849E+01 0.118E-01 0.150E-04 .58730E-05 0.388E+00 0.698E+00 0.000E+00 0.000E+00 0.000E+00
BIGSUB   2        0  362.14128E+00 0.147E+02 0.000E+00 0.389E+01 0.343E+01 0.961E+02 0.116E+00 0.597E+00 0.453E-01 0.848E+01 0.384E-01 0.259E-01 0.318E-02 0.480E-04 0.120E-04 0.248E-02 0.783E+01 0.806E-02 0.143E-04 .55870E-05 0.836E+00 0.643E+00 0.000E+00 0.000E+00 0.000E+00
BIGSUB   3        0  362.21095E+00 0.147E+02 0.000E+00 0.389E+01 0.350E+01 0.109E+03 0.171E+01 0.459E+00 0.580E+00 0.846E+01 0.140E-01 0.240E-01 0.295E-02 0.300E-04 0.150E-04 0.226E-02 0.739E+01 0.109E-01 0.135E-03 .59228E-05 0.391E+00 0.653E+00 0.000E+00 0.000E+00 0.000E+00
BIGSUB   4        0  362.18489E+00 0.147E+02 0.000E+00 0.389E+01 0.343E+01 0.934E+02 0.000E+00 0.629E+00 0.000E+00 0.845E+01 0.280E-01 0.311E-01 0.382E-02 0.506E-04 0.165E-04 0.295E-02 0.781E+01 0.803E-02 0.100E-11 .69103E-05 0.678E+00 0.638E+00 0.000E+00 0.000E+00 0.000E+00
BIGSUB   5        0  362.20438E+00 0.147E+02 0.000E+00 0.389E+01 0.347E+01 0.101E+03 0.191E+01 0.590E+00 0.587E+00 0.847E+01 0.127E-01 0.319E-01 0.391E-02 0.308E-04 0.241E-04 0.299E-02 0.726E+01 0.129E-01 0.105E-03 .82917E-05 0.393E+00 0.643E+00 0.000E+00 0.000E+00 0.000E+00
BIGSUB   6        0  362.17925E+00 0.147E+02 0.000E+00 0.389E+01 0.344E+01 0.938E+02 0.105E+01 0.673E+00 0.173E+00 0.842E+01 0.172E-01 0.360E-01 0.441E-02 0.388E-04 0.248E-04 0.337E-02 0.757E+01 0.131E-01 0.202E-04 .91680E-05 0.511E+00 0.633E+00 0.000E+00 0.000E+00 0.000E+00
BIGSUB   7        0  362.19956E+00 0.147E+02 0.000E+00 0.389E+01 0.345E+01 0.963E+02 0.891E+00 0.633E+00 0.105E+00 0.842E+01 0.175E-01 0.335E-01 0.411E-02 0.381E-04 0.220E-04 0.315E-02 0.768E+01 0.124E-01 0.125E-04 .85158E-05 0.510E+00 0.636E+00 0.000E+00 0.000E+00 0.000E+00
BIGSUB   8        0  362.58278E-01 0.147E+02 0.000E+00 0.389E+01 0.344E+01 0.938E+02 0.315E-01 0.637E+00 0.000E+00 0.833E+01 0.217E-01 0.330E-01 0.404E-02 0.489E-04 0.197E-04 0.311E-02 0.769E+01 0.795E-02 0.100E-11 .77152E-05 0.577E+00 0.628E+00 0.000E+00 0.000E+00 0.000E+00
BIGSUB   9        0  362.38835E+00 0.147E+02 0.000E+00 0.389E+01 0.343E+01 0.932E+02 0.293E-01 0.623E+00 0.109E-01 0.847E+01 0.320E-01 0.295E-01 0.362E-02 0.522E-04 0.152E-04 0.281E-02 0.784E+01 0.793E-02 0.514E-05 .63751E-05 0.736E+00 0.641E+00 0.000E+00 0.000E+00 0.000E+00
BIGSUB  10        0  362.17761E+00 0.147E+02 0.000E+00 0.388E+01 0.343E+01 0.970E+02 0.339E+00 0.594E+00 0.148E+00 0.839E+01 0.270E-01 0.294E-01 0.360E-02 0.491E-04 0.156E-04 0.278E-02 0.764E+01 0.788E-02 0.792E-04 .64236E-05 0.645E+00 0.636E+00 0.000E+00 0.000E+00 0.000E+00
BIGSUB  11        0  362.14877E-01 0.147E+02 0.000E+00 0.388E+01 0.343E+01 0.114E+03 0.886E+00 0.438E+00 0.351E+00 0.839E+01 0.252E-01 0.199E-01 0.245E-02 0.360E-04 0.957E-05 0.190E-02 0.759E+01 0.851E-02 0.114E-03 .42977E-05 0.565E+00 0.650E+00 0.000E+00 0.000E+00 0.000E+00
BIGSUB   1        0  363.15760E+00 0.840E+01 0.000E+00 0.424E+01 0.372E+01 0.109E+03 0.222E+00 0.175E-02 0.554E-01 0.545E+01 0.344E-09 0.324E-05 0.397E-06 0.655E-07 0.405E-06 0.285E-06 0.539E+01 0.692E-02 0.153E-04 .51757E-08 0.000E+00 0.446E+00 0.000E+00 0.000E+00 0.000E+00
BIGSUB   2        0  363.14128E+00 0.840E+01 0.000E+00 0.423E+01 0.364E+01 0.960E+02 0.391E-01 0.100E-05 0.463E-01 0.592E+01 0.142E-09 0.183E-08 0.100E-08 0.100E-08 0.100E-08 0.200E-08 0.587E+01 0.534E-02 0.148E-04 .32362E-23 0.000E+00 0.483E+00 0.000E+00 0.000E+00 0.000E+00
BIGSUB   3        0  363.21095E+00 0.840E+01 0.000E+00 0.424E+01 0.372E+01 0.109E+03 0.663E+00 0.101E-05 0.592E+00 0.564E+01 0.140E-09 0.100E-08 0.100E-08 0.100E-08 0.100E-08 0.200E-08 0.502E+01 0.697E-02 0.139E-03 .29239E-23 0.000E+00 0.460E+00 0.000E+00 0.000E+00 0.000E+00
BIGSUB   4        0  363.18489E+00 0.840E+01 0.000E+00 0.423E+01 0.365E+01 0.934E+02 0.000E+00 0.100E-05 0.000E+00 0.585E+01 0.541E-10 0.100E-08 0.100E-08 0.100E-08 0.100E-08 0.200E-08 0.585E+01 0.527E-02 0.100E-11 .23385E-23 0.000E+00 0.478E+00 0.000E+00 0.000E+00 0.000E+00
BIGSUB   5        0  363.20438E+00 0.840E+01 0.000E+00 0.424E+01 0.369E+01 0.100E+03 0.666E+00 0.317E-04 0.602E+00 0.579E+01 0.191E-09 0.185E-07 0.241E-08 0.228E-08 0.714E-08 0.282E-08 0.516E+01 0.840E-02 0.109E-03 .12305E-13 0.000E+00 0.473E+00 0.000E+00 0.000E+00 0.000E+00
BIGSUB   6        0  363.17925E+00 0.840E+01 0.000E+00 0.424E+01 0.365E+01 0.935E+02 0.353E+00 0.720E-03 0.186E+00 0.582E+01 0.132E-09 0.654E-06 0.805E-07 0.272E-07 0.169E-06 0.587E-07 0.562E+01 0.886E-02 0.217E-04 .10938E-08 0.000E+00 0.476E+00 0.000E+00 0.000E+00 0.000E+00
BIGSUB   7        0  363.19956E+00 0.840E+01 0.000E+00 0.424E+01 0.366E+01 0.961E+02 0.321E+00 0.593E-03 0.120E+00 0.573E+01 0.168E-09 0.574E-06 0.710E-07 0.224E-07 0.142E-06 0.519E-07 0.560E+01 0.840E-02 0.138E-04 .98237E-09 0.000E+00 0.468E+00 0.000E+00 0.000E+00 0.000E+00
BIGSUB   8        0  363.58278E-01 0.840E+01 0.000E+00 0.423E+01 0.365E+01 0.936E+02 0.979E-01 0.100E-05 0.000E+00 0.584E+01 0.172E-09 0.100E-08 0.100E-08 0.100E-08 0.100E-08 0.200E-08 0.584E+01 0.638E-02 0.100E-11 .23461E-23 0.000E+00 0.477E+00 0.000E+00 0.000E+00 0.000E+00
BIGSUB   9        0  363.38835E+00 0.840E+01 0.000E+00 0.423E+01 0.364E+01 0.931E+02 0.130E-01 0.296E-03 0.111E-01 0.589E+01 0.677E-10 0.847E-07 0.111E-07 0.161E-07 0.665E-07 0.927E-08 0.588E+01 0.526E-02 0.520E-05 .36072E-11 0.000E+00 0.481E+00 0.000E+00 0.000E+00 0.000E+00
BIGSUB  10        0  363.17761E+00 0.840E+01 0.000E+00 0.422E+01 0.364E+01 0.969E+02 0.132E+00 0.456E-03 0.150E+00 0.590E+01 0.294E-09 0.999E-09 0.999E-09 0.122E-07 0.120E-06 0.200E-08 0.574E+01 0.523E-02 0.813E-04 .11276E-11 0.000E+00 0.482E+00 0.000E+00 0.000E+00 0.000E+00
BIGSUB  11        0  363.14877E-01 0.840E+01 0.000E+00 0.422E+01 0.364E+01 0.114E+03 0.306E+00 0.100E-05 0.358E+00 0.600E+01 0.201E-08 0.100E-08 0.100E-08 0.100E-08 0.100E-08 0.200E-08 0.563E+01 0.566E-02 0.118E-03 .22258E-23 0.000E+00 0.490E+00 0.000E+00 0.000E+00 0.000E+00
BIGSUB   1        0  364.15760E+00 0.300E+00 0.000E+00 0.573E+01 0.333E+01 0.106E+03 0.320E-04 0.907E-03 0.599E-01 0.147E+01 0.271E-09 0.187E-05 0.229E-06 0.337E-07 0.216E-06 0.165E-06 0.140E+01 0.185E-02 0.155E-04 .13106E-08 0.000E+00 0.120E+00 0.000E+00 0.000E+00 0.000E+00
BIGSUB   2        0  364.14128E+00 0.300E+00 0.000E+00 0.571E+01 0.317E+01 0.931E+02 0.000E+00 0.100E-05 0.472E-01 0.207E+01 0.142E-09 0.100E-08 0.100E-08 0.100E-08 0.100E-08 0.200E-08 0.202E+01 0.184E-02 0.151E-04 .19029E-22 0.000E+00 0.169E+00 0.000E+00 0.000E+00 0.000E+00
BIGSUB   3        0  364.21095E+00 0.300E+00 0.000E+00 0.573E+01 0.334E+01 0.106E+03 0.000E+00 0.100E-05 0.601E+00 0.209E+01 0.140E-09 0.100E-08 0.100E-08 0.100E-08 0.100E-08 0.200E-08 0.146E+01 0.200E-02 0.142E-03 .18695E-22 0.000E+00 0.170E+00 0.000E+00 0.000E+00 0.000E+00
BIGSUB   4        0  364.18489E+00 0.300E+00 0.000E+00 0.572E+01 0.317E+01 0.905E+02 0.000E+00 0.100E-05 0.000E+00 0.201E+01 0.541E-10 0.100E-08 0.100E-08 0.100E-08 0.100E-08 0.200E-08 0.201E+01 0.181E-02 0.100E-11 .19794E-22 0.000E+00 0.164E+00 0.000E+00 0.000E+00 0.000E+00
BIGSUB   5        0  364.20438E+00 0.300E+00 0.000E+00 0.573E+01 0.325E+01 0.974E+02 0.394E-06 0.242E-05 0.615E+00 0.230E+01 0.191E-09 0.125E-08 0.103E-08 0.106E-08 0.128E-08 0.202E-08 0.166E+01 0.271E-02 0.112E-03 .12110E-17 0.000E+00 0.188E+00 0.000E+00 0.000E+00 0.000E+00
BIGSUB   6        0  364.17925E+00 0.300E+00 0.000E+00 0.572E+01 0.317E+01 0.907E+02 0.567E-05 0.392E-03 0.198E+00 0.214E+01 0.132E-09 0.386E-06 0.481E-07 0.151E-07 0.946E-07 0.356E-07 0.193E+01 0.304E-02 0.230E-04 .27701E-09 0.000E+00 0.175E+00 0.000E+00 0.000E+00 0.000E+00
BIGSUB   7        0  364.19956E+00 0.300E+00 0.000E+00 0.572E+01 0.320E+01 0.932E+02 0.510E-05 0.350E-03 0.134E+00 0.201E+01 0.168E-09 0.346E-06 0.432E-07 0.136E-07 0.847E-07 0.321E-07 0.186E+01 0.280E-02 0.150E-04 .24880E-09 0.000E+00 0.164E+00 0.000E+00 0.000E+00 0.000E+00
BIGSUB   8        0  364.58278E-01 0.300E+00 0.000E+00 0.572E+01 0.317E+01 0.907E+02 0.000E+00 0.100E-05 0.000E+00 0.201E+01 0.172E-09 0.100E-08 0.100E-08 0.100E-08 0.100E-08 0.200E-08 0.201E+01 0.219E-02 0.100E-11 .19843E-22 0.000E+00 0.164E+00 0.000E+00 0.000E+00 0.000E+00
BIGSUB   9        0  364.38835E+00 0.300E+00 0.000E+00 0.571E+01 0.316E+01 0.903E+02 0.156E-04 0.686E-04 0.112E-01 0.203E+01 0.677E-10 0.147E-07 0.268E-08 0.460E-08 0.164E-07 0.320E-08 0.202E+01 0.181E-02 0.522E-05 .82220E-13 0.000E+00 0.166E+00 0.000E+00 0.000E+00 0.000E+00
BIGSUB  10        0  364.17761E+00 0.300E+00 0.000E+00 0.571E+01 0.317E+01 0.940E+02 0.000E+00 0.275E-03 0.153E+00 0.216E+01 0.294E-09 0.999E-09 0.999E-09 0.580E-08 0.725E-07 0.200E-08 0.200E+01 0.183E-02 0.826E-04 .25307E-12 0.000E+00 0.177E+00 0.000E+00 0.000E+00 0.000E+00
BIGSUB  11        0  364.14877E-01 0.300E+00 0.000E+00 0.571E+01 0.321E+01 0.111E+03 0.000E+00 0.100E-05 0.365E+00 0.232E+01 0.201E-08 0.100E-08 0.100E-08 0.100E-08 0.100E-08 0.200E-08 0.194E+01 0.195E-02 0.121E-03 .16412E-22 0.000E+00 0.189E+00 0.000E+00 0.000E+00 0.000E+00
BIGSUB   1        0  365.15760E+00 0.740E+01 0.000E+00 0.349E+01 0.311E+01 0.108E+03 0.542E-02 0.535E-03 0.639E-01 0.231E+01 0.271E-09 0.112E-05 0.138E-06 0.202E-07 0.128E-06 0.995E-07 0.223E+01 0.748E-03 0.156E-04 .31327E-09 0.000E+00 0.192E+00 0.000E+00 0.000E+00 0.000E+00
BIGSUB   2        0  365.14128E+00 0.740E+01 0.000E+00 0.349E+01 0.293E+01 0.945E+02 0.000E+00 0.100E-05 0.479E-01 0.275E+01 0.142E-09 0.100E-08 0.100E-08 0.100E-08 0.100E-08 0.200E-08 0.270E+01 0.756E-03 0.154E-04 .10617E-22 0.000E+00 0.228E+00 0.000E+00 0.000E+00 0.000E+00
BIGSUB   3        0  365.21095E+00 0.740E+01 0.000E+00 0.349E+01 0.314E+01 0.108E+03 0.604E-04 0.100E-05 0.610E+00 0.251E+01 0.140E-09 0.100E-08 0.100E-08 0.100E-08 0.100E-08 0.200E-08 0.187E+01 0.785E-03 0.143E-03 .12927E-22 0.000E+00 0.208E+00 0.000E+00 0.000E+00 0.000E+00
BIGSUB   4        0  365.18489E+00 0.740E+01 0.000E+00 0.349E+01 0.294E+01 0.919E+02 0.000E+00 0.100E-05 0.000E+00 0.267E+01 0.541E-10 0.100E-08 0.100E-08 0.100E-08 0.100E-08 0.200E-08 0.267E+01 0.746E-03 0.100E-11 .11191E-22 0.000E+00 0.222E+00 0.000E+00 0.000E+00 0.000E+00
BIGSUB   5        0  365.20438E+00 0.740E+01 0.000E+00 0.349E+01 0.320E+01 0.997E+02 0.846E-03 0.106E-05 0.626E+00 0.250E+01 0.191E-09 0.101E-08 0.100E-08 0.100E-08 0.101E-08 0.200E-08 0.185E+01 0.101E-02 0.114E-03 .13073E-21 0.000E+00 0.208E+00 0.000E+00 0.000E+00 0.000E+00
BIGSUB   6        0  365.17925E+00 0.740E+01 0.000E+00 0.349E+01 0.311E+01 0.926E+02 0.278E-02 0.235E-03 0.208E+00 0.242E+01 0.132E-09 0.233E-06 0.293E-07 0.944E-08 0.571E-07 0.222E-07 0.220E+01 0.112E-02 0.241E-04 .66209E-10 0.000E+00 0.201E+00 0.000E+00 0.000E+00 0.000E+00
BIGSUB   7        0  365.19956E+00 0.740E+01 0.000E+00 0.349E+01 0.310E+01 0.952E+02 0.848E-03 0.211E-03 0.146E+00 0.236E+01 0.168E-09 0.209E-06 0.264E-07 0.858E-08 0.514E-07 0.201E-07 0.221E+01 0.105E-02 0.160E-04 .59467E-10 0.000E+00 0.196E+00 0.000E+00 0.000E+00 0.000E+00
BIGSUB   8        0  365.58278E-01 0.740E+01 0.000E+00 0.349E+01 0.298E+01 0.922E+02 0.000E+00 0.100E-05 0.000E+00 0.258E+01 0.172E-09 0.100E-08 0.100E-08 0.100E-08 0.100E-08 0.200E-08 0.257E+01 0.868E-03 0.100E-11 .12058E-22 0.000E+00 0.214E+00 0.000E+00 0.000E+00 0.000E+00
BIGSUB   9        0  365.38835E+00 0.740E+01 0.000E+00 0.349E+01 0.292E+01 0.916E+02 0.222E-02 0.190E-04 0.114E-01 0.274E+01 0.677E-10 0.411E-08 0.138E-08 0.197E-08 0.516E-08 0.227E-08 0.273E+01 0.752E-03 0.522E-05 .19618E-14 0.000E+00 0.228E+00 0.000E+00 0.000E+00 0.000E+00
BIGSUB  10        0  365.17761E+00 0.740E+01 0.000E+00 0.349E+01 0.294E+01 0.955E+02 0.271E-02 0.166E-03 0.155E+00 0.280E+01 0.294E-09 0.999E-09 0.999E-09 0.362E-08 0.440E-07 0.200E-08 0.263E+01 0.778E-03 0.834E-04 .55916E-13 0.000E+00 0.232E+00 0.000E+00 0.000E+00 0.000E+00
BIGSUB  11        0  365.14877E-01 0.740E+01 0.000E+00 0.349E+01 0.299E+01 0.112E+03 0.935E-02 0.100E-05 0.370E+00 0.283E+01 0.201E-08 0.100E-08 0.100E-08 0.100E-08 0.100E-08 0.200E-08 0.244E+01 0.795E-03 0.124E-03 .10162E-22 0.000E+00 0.235E+00 0.000E+00 0.000E+00 0.000E+00
BIGSUB   1        0  366.15760E+00 0.399E+02 0.000E+00 0.181E+01 0.179E+01 0.111E+03 0.178E+01 0.101E+02 0.686E-01 0.287E+02 0.290E+00 0.560E+00 0.687E-01 0.195E-03 0.348E-03 0.521E-01 0.186E+02 0.330E-01 0.160E-04 .35705E-02 0.439E+02 0.157E+01 0.000E+00 0.000E+00 0.000E+00
BIGSUB   2        0  366.14128E+00 0.399E+02 0.000E+00 0.181E+01 0.179E+01 0.982E+02 0.641E+00 0.120E+02 0.490E-01 0.272E+02 0.666E+00 0.471E+00 0.578E-01 0.255E-03 0.257E-03 0.450E-01 0.152E+02 0.242E-01 0.160E-04 .37354E-02 0.915E+02 0.128E+01 0.000E+00 0.000E+00 0.000E+00
BIGSUB   3        0  366.21095E+00 0.399E+02 0.000E+00 0.181E+01 0.179E+01 0.111E+03 0.479E+01 0.100E+02 0.621E+00 0.263E+02 0.262E+00 0.563E+00 0.690E-01 0.178E-03 0.371E-03 0.520E-01 0.157E+02 0.297E-01 0.148E-03 .36543E-02 0.432E+02 0.137E+01 0.000E+00 0.000E+00 0.000E+00
BIGSUB   4        0  366.18489E+00 0.399E+02 0.000E+00 0.181E+01 0.179E+01 0.954E+02 0.620E+00 0.124E+02 0.000E+00 0.275E+02 0.481E+00 0.552E+00 0.677E-01 0.264E-03 0.319E-03 0.524E-01 0.151E+02 0.259E-01 0.100E-11 .44693E-02 0.727E+02 0.127E+01 0.000E+00 0.000E+00 0.000E+00
BIGSUB   5        0  366.20438E+00 0.399E+02 0.000E+00 0.181E+01 0.179E+01 0.102E+03 0.433E+01 0.115E+02 0.641E+00 0.264E+02 0.214E+00 0.572E+00 0.701E-01 0.169E-03 0.485E-03 0.532E-01 0.143E+02 0.280E-01 0.119E-03 .45422E-02 0.379E+02 0.126E+01 0.000E+00 0.000E+00 0.000E+00
BIGSUB   6        0  366.17925E+00 0.399E+02 0.000E+00 0.181E+01 0.179E+01 0.954E+02 0.232E+01 0.125E+02 0.221E+00 0.269E+02 0.276E+00 0.595E+00 0.730E-01 0.200E-03 0.452E-03 0.558E-01 0.142E+02 0.283E-01 0.259E-04 .51108E-02 0.491E+02 0.122E+01 0.000E+00 0.000E+00 0.000E+00
BIGSUB   7        0  366.19956E+00 0.399E+02 0.000E+00 0.181E+01 0.179E+01 0.980E+02 0.224E+01 0.121E+02 0.161E+00 0.271E+02 0.291E+00 0.589E+00 0.723E-01 0.201E-03 0.419E-03 0.552E-01 0.149E+02 0.291E-01 0.175E-04 .48348E-02 0.504E+02 0.127E+01 0.000E+00 0.000E+00 0.000E+00
BIGSUB   8        0  366.58278E-01 0.399E+02 0.000E+00 0.181E+01 0.179E+01 0.954E+02 0.933E+00 0.124E+02 0.000E+00 0.275E+02 0.370E+00 0.580E+00 0.711E-01 0.256E-03 0.380E-03 0.547E-01 0.150E+02 0.277E-01 0.100E-11 .47437E-02 0.601E+02 0.127E+01 0.000E+00 0.000E+00 0.000E+00
BIGSUB   9        0  366.38835E+00 0.399E+02 0.000E+00 0.181E+01 0.179E+01 0.954E+02 0.470E+00 0.123E+02 0.115E-01 0.274E+02 0.554E+00 0.528E+00 0.648E-01 0.273E-03 0.292E-03 0.502E-01 0.151E+02 0.240E-01 0.528E-05 .42597E-02 0.806E+02 0.127E+01 0.000E+00 0.000E+00 0.000E+00
BIGSUB  10        0  366.17761E+00 0.399E+02 0.000E+00 0.182E+01 0.180E+01 0.990E+02 0.141E+01 0.119E+02 0.158E+00 0.268E+02 0.467E+00 0.532E+00 0.652E-01 0.264E-03 0.336E-03 0.504E-01 0.147E+02 0.242E-01 0.857E-04 .42500E-02 0.700E+02 0.126E+01 0.000E+00 0.000E+00 0.000E+00
BIGSUB  11        0  366.14877E-01 0.399E+02 0.000E+00 0.182E+01 0.179E+01 0.116E+03 0.259E+01 0.994E+01 0.378E+00 0.257E+02 0.444E+00 0.408E+00 0.501E-01 0.241E-03 0.395E-03 0.386E-01 0.154E+02 0.244E-01 0.128E-03 .29393E-02 0.622E+02 0.133E+01 0.000E+00 0.000E+00 0.000E+00
