1
    SWAT Dec 23 2016    VER 2016/Rev 664                                                                 0/ 0/   0      0: 0: 0

    General Input/Output section (file.cio):                                        
    2/12/2020 14:38:04 QSWAT Workflow v1.5.2                                        
                                                                                    
         Number of years in run:    5
         Area of watershed:        1.917 km2
1
    SWAT Dec 23 2016    VER 2016/Rev 664                                            

    General Input/Output section (file.cio):                                        
    2/12/2020 14:38:04 QSWAT Workflow v1.5.2                                        
                                                                                    
Annual Summary for Watershed in year    1 of simulation

UNIT                                    PERCO    TILE                           WATER     SED     NO3     NO3     NO3     NO3        N       P       P
TIME     PREC    SURQ    LATQ     GWQ    LATE       Q     SW       ET     PET   YIELD   YIELD    SURQ    LATQ    PERC    CROP  ORGANIC SOLUBLE ORGANIC TILENO3
         (mm)    (mm)    (mm)    (mm)    (mm)    (mm)    (mm)    (mm)    (mm)    (mm)   (t/ha)  ------------------(kg nutrient/ha)-------------------- (kg/ha)
1
    SWAT Dec 23 2016    VER 2016/Rev 664                                            

    General Input/Output section (file.cio):                                        
    2/12/2020 14:38:04 QSWAT Workflow v1.5.2                                        
                                                                                    
Annual Summary for Watershed in year    2 of simulation

UNIT                                    PERCO    TILE                           WATER     SED     NO3     NO3     NO3     NO3        N       P       P
TIME     PREC    SURQ    LATQ     GWQ    LATE       Q     SW       ET     PET   YIELD   YIELD    SURQ    LATQ    PERC    CROP  ORGANIC SOLUBLE ORGANIC TILENO3
         (mm)    (mm)    (mm)    (mm)    (mm)    (mm)    (mm)    (mm)    (mm)    (mm)   (t/ha)  ------------------(kg nutrient/ha)-------------------- (kg/ha)
1
    SWAT Dec 23 2016    VER 2016/Rev 664                                            

    General Input/Output section (file.cio):                                        
    2/12/2020 14:38:04 QSWAT Workflow v1.5.2                                        
                                                                                    
Annual Summary for Watershed in year    3 of simulation

UNIT                                    PERCO    TILE                           WATER     SED     NO3     NO3     NO3     NO3        N       P       P
TIME     PREC    SURQ    LATQ     GWQ    LATE       Q     SW       ET     PET   YIELD   YIELD    SURQ    LATQ    PERC    CROP  ORGANIC SOLUBLE ORGANIC TILENO3
         (mm)    (mm)    (mm)    (mm)    (mm)    (mm)    (mm)    (mm)    (mm)    (mm)   (t/ha)  ------------------(kg nutrient/ha)-------------------- (kg/ha)
1
    SWAT Dec 23 2016    VER 2016/Rev 664                                            

    General Input/Output section (file.cio):                                        
    2/12/2020 14:38:04 QSWAT Workflow v1.5.2                                        
                                                                                    
Annual Summary for Watershed in year    4 of simulation

UNIT                                    PERCO    TILE                           WATER     SED     NO3     NO3     NO3     NO3        N       P       P
TIME     PREC    SURQ    LATQ     GWQ    LATE       Q     SW       ET     PET   YIELD   YIELD    SURQ    LATQ    PERC    CROP  ORGANIC SOLUBLE ORGANIC TILENO3
         (mm)    (mm)    (mm)    (mm)    (mm)    (mm)    (mm)    (mm)    (mm)    (mm)   (t/ha)  ------------------(kg nutrient/ha)-------------------- (kg/ha)
    1   26.90    3.99   10.39    0.28    0.38    0.00   96.67    2.31    2.33   14.67    0.28    0.00    0.01    0.00    0.00     0.65    0.00    0.08    0.00
    2    1.00    0.00    3.28    0.28    0.00    0.00   94.58    3.09    3.90    3.57    0.00    0.00    0.00    0.00    0.00     0.00    0.00    0.00    0.00
    3   15.50    0.63    7.28    0.27    0.38    0.00   95.98    3.95    4.71    8.20    0.04    0.00    0.01    0.01    0.00     0.10    0.00    0.01    0.00
    4    6.40    0.00    4.10    0.27    0.05    0.00   95.13    4.58    5.74    4.38    0.00    0.00    0.00    0.00    0.00     0.00    0.00    0.00    0.00
    5   25.70    3.92   11.59    0.26    1.07    0.00   96.15    4.60    5.74   15.78    0.51    0.00    0.02    0.02    0.00     1.00    0.00    0.12    0.00
    6    1.30    0.00    3.74    0.25    0.00    0.00   93.70    3.64    5.77    4.01    0.00    0.00    0.01    0.00    0.00     0.00    0.00    0.00    0.00
    7    0.00    0.00    1.27    0.24    0.00    0.00   91.40    2.31    5.75    1.53    0.00    0.00    0.00    0.00    0.00     0.00    0.00    0.00    0.00
    8    0.00    0.00    0.44    0.24    0.00    0.00   89.48    1.91    5.97    0.69    0.00    0.00    0.00    0.00    0.00     0.00    0.00    0.00    0.00
    9   70.90   31.90   17.51    0.24    1.77    0.00   97.56    3.69    4.27   49.65    3.11    0.00    0.03    0.04    0.00     6.69    0.00    0.82    0.00
   10   49.80   18.40   22.10    0.24    2.52    0.00   98.27    3.61    4.14   40.76    0.00    0.00    0.05    0.08    0.00     4.96    0.00    0.61    0.00
   11   53.10   20.92   24.49    0.25    2.87    0.00   99.73    2.16    2.17   45.67    2.72    0.00    0.06    0.10    0.00     4.68    0.00    0.57    0.00
   12   38.90   11.58   23.09    0.26    2.63    0.00  100.02    1.86    1.87   34.95    0.00    0.00    0.06    0.09    0.00     1.98    0.00    0.24    0.00
   13   15.00    0.72   14.97    0.27    1.22    0.00   99.99    1.89    1.90   15.98    0.03    0.00    0.04    0.04    0.00     0.05    0.00    0.01    0.00
   14   23.40    3.40   15.94    0.28    1.84    0.00   99.80    2.09    2.10   19.64    0.17    0.00    0.04    0.07    0.00     0.36    0.00    0.04    0.00
   15   17.50    1.33   13.72    0.29    1.39    0.00   99.46    2.43    2.44   15.36    0.00    0.00    0.03    0.05    0.00     0.23    0.00    0.03    0.00
   16    8.40    0.00    8.15    0.30    0.51    0.00   99.15    2.73    2.75    8.47    0.00    0.00    0.02    0.02    0.00     0.00    0.00    0.00    0.00
   17   32.30    7.62   16.11    0.31    2.18    0.00   99.02    2.87    2.94   24.06    0.43    0.00    0.03    0.07    0.00     0.81    0.00    0.10    0.00
   18    2.50    0.00    5.52    0.32    0.00    0.00   98.42    2.49    2.53    5.86    0.00    0.00    0.01    0.00    0.00     0.00    0.00    0.00    0.00
   19   10.70    0.06    6.39    0.33    0.48    0.00   99.68    2.20    2.22    6.80    0.00    0.00    0.01    0.01    0.00     0.01    0.00    0.00    0.00
   20    8.60    0.00    6.00    0.34    0.58    0.00   98.00    3.89    4.57    6.36    0.00    0.00    0.01    0.02    0.00     0.00    0.00    0.00    0.00
   21    1.80    0.00    2.17    0.35    0.00    0.00   96.22    3.26    4.44    2.54    0.00    0.00    0.00    0.00    0.00     0.00    0.00    0.00    0.00
   22    8.10    0.00    2.89    0.36    0.03    0.00   97.34    3.74    4.37    3.26    0.00    0.00    0.00    0.00    0.00     0.00    0.00    0.00    0.00
   23    0.00    0.00    0.95    0.36    0.00    0.00   95.14    2.20    4.17    1.33    0.00    0.00    0.00    0.00    0.00     0.00    0.00    0.00    0.00
   24    0.00    0.00    0.33    0.37    0.00    0.00   93.18    1.96    4.75    0.71    0.00    0.00    0.00    0.00    0.00     0.00    0.00    0.00    0.00
   25    6.60    0.00    1.60    0.37    0.00    0.00   93.90    3.65    5.38    1.98    0.00    0.00    0.00    0.00    0.00     0.00    0.00    0.00    0.00
   26    0.00    0.00    0.53    0.37    0.00    0.00   91.76    2.14    4.99    0.92    0.00    0.00    0.00    0.00    0.00     0.00    0.00    0.00    0.00
   27    8.40    0.00    2.18    0.38    0.00    0.00   93.49    3.67    5.01    2.58    0.00    0.00    0.00    0.00    0.00     0.00    0.00    0.00    0.00
   28   28.20    4.85   10.82    0.38    0.68    0.00   97.44    3.83    4.49   16.07    0.37    0.00    0.01    0.01    0.00     0.64    0.00    0.08    0.00
   29   70.90   34.34   23.19    0.38    3.11    0.00   98.82    3.06    3.25   57.92    2.09    0.00    0.04    0.09    0.00     4.38    0.00    0.54    0.00
   30    6.60    0.00    9.49    0.39    0.16    0.00  100.32    1.57    1.58    9.91    0.00    0.00    0.02    0.00    0.00     0.00    0.00    0.00    0.00
   31   38.10   11.18   18.59    0.39    2.67    0.00  100.77    1.11    1.12   30.18    1.05    0.00    0.04    0.09    0.00     1.60    0.00    0.20    0.00
    1  576.60  154.86  288.81    9.66   26.53    0.00  100.77   88.50  117.38  453.79   10.81    0.01    0.55    0.82    0.00    28.15    0.01    3.44    0.00
   32    2.50    0.00    6.75    0.40    0.11    0.00   98.88    3.01    3.16    7.17    0.00    0.00    0.01    0.00    0.00     0.00    0.00    0.00    0.00
   33    5.80    0.00    4.11    0.41    0.11    0.00  101.02    0.84    0.84    4.54    0.00    0.00    0.01    0.00    0.00     0.00    0.00    0.00    0.00
   34    8.90    0.00    6.25    0.41    0.78    0.00   98.41    3.47    3.90    6.68    0.00    0.00    0.01    0.03    0.00     0.00    0.00    0.00    0.00
   35   24.10    3.56   12.53    0.42    1.56    0.00   98.59    3.29    3.61   16.52    0.44    0.00    0.02    0.05    0.00     0.60    0.00    0.07    0.00
   36   21.30    2.48   13.54    0.42    1.41    0.00   99.45    2.43    2.45   16.46    0.00    0.00    0.03    0.04    0.00     0.30    0.00    0.04    0.00
   37    3.30    0.00    5.04    0.43    0.02    0.00   99.95    1.78    1.79    5.49    0.00    0.00    0.01    0.00    0.00     0.00    0.00    0.00    0.00
   38    7.90    0.00    5.37    0.43    0.54    0.00   98.06    3.83    4.20    5.82    0.00    0.00    0.01    0.02    0.01     0.00    0.00    0.00    0.00
   39   70.60   34.29   21.64    0.44    3.32    0.00   99.42    2.47    2.47   56.38    2.09    0.00    0.03    0.10    0.22     3.48    0.00    0.43    0.00
   40    0.30    0.00    6.70    0.44    0.00    0.00   97.23    2.48    3.56    7.17    0.00    0.00    0.01    0.00    0.34     0.00    0.00    0.00    0.00
   41    0.00    0.00    2.28    0.45    0.00    0.00   95.77    1.46    2.40    2.75    0.00    0.00    0.00    0.00    0.22     0.00    0.00    0.00    0.00
   42    0.00    0.00    0.78    0.45    0.00    0.00   94.15    1.62    2.92    1.26    0.00    0.00    0.00    0.00    0.29     0.00    0.00    0.00    0.00
   43    0.00    0.00    0.27    0.46    0.00    0.00   91.87    2.28    5.22    0.75    0.00    0.00    0.00    0.00    0.27     0.00    0.00    0.00    0.00
   44    0.00    0.00    0.09    0.46    0.00    0.00   89.67    2.20    4.78    0.57    0.00    0.00    0.00    0.00    0.53     0.00    0.00    0.00    0.00
   45    0.00    0.00    0.03    0.46    0.00    0.00   87.58    2.09    4.35    0.51    0.00    0.00    0.00    0.00    0.52     0.00    0.00    0.00    0.00
   46    0.00    0.00    0.01    0.46    0.00    0.00   85.64    1.94    3.94    0.49    0.00    0.00    0.00    0.00    0.40     0.00    0.00    0.00    0.00
   47    0.00    0.00    0.00    0.46    0.00    0.00   83.08    2.57    4.89    0.48    0.00    0.00    0.00    0.00    0.46     0.00    0.00    0.00    0.00
   48    0.00    0.00    0.00    0.46    0.00    0.00   81.34    1.73    2.55    0.48    0.00    0.00    0.00    0.00    0.30     0.00    0.00    0.00    0.00
   49    0.00    0.00    0.00    0.46    0.00    0.00   78.98    2.37    3.55    0.48    0.00    0.00    0.00    0.00    0.41     0.00    0.00    0.00    0.00
   50    0.00    0.00    0.00    0.46    0.00    0.00   76.71    2.27    3.75    0.48    0.00    0.00    0.00    0.00    0.18     0.00    0.00    0.00    0.00
   51    0.00    0.00    0.00    0.45    0.00    0.00   74.53    2.17    3.90    0.47    0.00    0.00    0.00    0.00    0.24     0.00    0.00    0.00    0.00
   52    0.00    0.00    0.00    0.45    0.00    0.00   71.71    2.83    4.82    0.47    0.00    0.00    0.00    0.00    0.22     0.00    0.00    0.00    0.00
   53    0.00    0.00    0.00    0.45    0.00    0.00   69.05    2.66    4.38    0.47    0.00    0.00    0.00    0.00    0.19     0.00    0.00    0.00    0.00
   54    0.00    0.00    0.00    0.44    0.00    0.00   66.16    2.89    4.91    0.46    0.00    0.00    0.00    0.00    0.17     0.00    0.00    0.00    0.00
   55    0.00    0.00    0.00    0.44    0.00    0.00   63.48    2.68    4.11    0.46    0.00    0.00    0.00    0.00    0.18     0.00    0.00    0.00    0.00
   56    0.00    0.00    0.00    0.43    0.00    0.00   60.47    3.02    5.15    0.45    0.00    0.00    0.00    0.00    0.11     0.00    0.00    0.00    0.00
   57    0.00    0.00    0.00    0.43    0.00    0.00   57.36    3.10    5.20    0.45    0.00    0.00    0.00    0.00    0.14     0.00    0.00    0.00    0.00
   58    0.00    0.00    0.00    0.42    0.00    0.00   54.69    2.67    4.79    0.44    0.00    0.00    0.00    0.00    0.11     0.00    0.00    0.00    0.00
   59    0.00    0.00    0.00    0.42    0.00    0.00   51.95    2.74    5.27    0.44    0.00    0.00    0.00    0.00    0.08     0.00    0.00    0.00    0.00
    2  144.70   40.34   85.41   12.30    7.84    0.00   51.95   68.88  106.85  138.58    2.53    0.00    0.15    0.25    5.59     4.37    0.00    0.53    0.00
   60    0.00    0.00    0.00    0.41    0.00    0.00   49.21    2.73    4.20    0.43    0.00    0.00    0.00    0.00    0.09     0.00    0.00    0.00    0.00
   61    0.00    0.00    0.00    0.41    0.00    0.00   46.63    2.59    3.85    0.43    0.00    0.00    0.00    0.00    0.03     0.00    0.00    0.00    0.00
   62    0.00    0.00    0.00    0.40    0.00    0.00   43.78    2.85    4.36    0.42    0.00    0.00    0.00    0.00    0.02     0.00    0.00    0.00    0.00
   63    0.00    0.00    0.00    0.40    0.00    0.00   41.30    2.48    3.41    0.41    0.00    0.00    0.00    0.00    0.04     0.00    0.00    0.00    0.00
   64    0.00    0.00    0.00    0.39    0.00    0.00   39.05    2.25    5.16    0.41    0.00    0.00    0.00    0.00    0.01     0.00    0.00    0.00    0.00
   65    0.00    0.00    0.00    0.38    0.00    0.00   37.69    1.37    3.46    0.40    0.00    0.00    0.00    0.00    0.07     0.00    0.00    0.00    0.00
   66    0.00    0.00    0.00    0.36    0.00    0.00   36.55    1.14    1.86    0.38    0.00    0.00    0.00    0.00    0.02     0.00    0.00    0.00    0.00
   67    0.00    0.00    0.00    0.35    0.00    0.00   35.70    0.84    1.12    0.37    0.00    0.00    0.00    0.00    0.01     0.00    0.00    0.00    0.00
   68    0.00    0.00    0.00    0.34    0.00    0.00   33.68    2.03    3.03    0.36    0.00    0.00    0.00    0.00    0.01     0.00    0.00    0.00    0.00
   69    0.00    0.00    0.00    0.33    0.00    0.00   31.25    2.42    4.38    0.35    0.00    0.00    0.00    0.00    0.01     0.00    0.00    0.00    0.00
   70    5.60    0.00    1.20    0.33    0.00    0.00   31.90    3.15    4.12    1.55    0.00    0.00    0.00    0.00    0.01     0.00    0.00    0.00    0.00
   71    0.00    0.00    0.40    0.32    0.00    0.00   29.24    2.66    4.32    0.73    0.00    0.00    0.00    0.00    0.02     0.00    0.00    0.00    0.00
   72    1.80    0.00    0.29    0.29    0.00    0.00   27.51    3.30    3.99    0.60    0.00    0.00    0.00    0.00    0.02     0.00    0.00    0.00    0.00
   73    0.00    0.00    0.10    0.28    0.00    0.00   25.13    2.38    3.77    0.39    0.00    0.00    0.00    0.00    0.02     0.00    0.00    0.00    0.00
   74    2.80    0.00    0.48    0.27    0.00    0.00   23.85    3.40    4.46    0.77    0.00    0.00    0.00    0.00    0.02     0.00    0.00    0.00    0.00
   75   14.20    0.00    3.81    0.26    0.00    0.00   28.61    3.96    4.56    4.08    0.00    0.00    0.00    0.00    0.05     0.00    0.00    0.00    0.00
   76    0.50    0.00    1.26    0.21    0.00    0.00   25.80    3.31    4.95    1.49    0.00    0.00    0.00    0.00    0.09     0.00    0.00    0.00    0.00
   77    0.00    0.00    0.43    0.20    0.00    0.00   23.23    2.57    3.51    0.65    0.00    0.00    0.00    0.00    0.10     0.00    0.00    0.00    0.00
   78    5.60    0.00    1.36    0.19    0.00    0.00   23.18    3.84    5.05    1.56    0.00    0.00    0.00    0.00    0.06     0.00    0.00    0.00    0.00
   79    6.40    0.00    1.92    0.19    0.00    0.00   24.24    3.13    3.72    2.12    0.00    0.00    0.00    0.00    0.11     0.00    0.00    0.00    0.00
   80   17.80    0.00    5.41    0.18    0.00    0.00   31.70    3.16    3.33    5.61    0.00    0.00    0.00    0.00    0.05     0.00    0.00    0.00    0.00
   81    2.00    0.00    2.08    0.17    0.00    0.00   29.41    3.86    4.37    2.28    0.00    0.00    0.00    0.00    0.06     0.00    0.00    0.00    0.00
   82   17.30    0.00    6.17    0.17    0.00    0.00   35.80    2.71    2.83    6.36    0.00    0.00    0.00    0.00    0.09     0.00    0.00    0.00    0.00
   83    0.00    0.00    2.04    0.17    0.00    0.00   33.64    2.17    2.72    2.23    0.00    0.00    0.00    0.00    0.05     0.00    0.00    0.00    0.00
   84    3.30    0.00    1.35    0.17    0.00    0.00   32.88    3.08    3.40    1.53    0.00    0.00    0.00    0.00    0.05     0.00    0.00    0.00    0.00
   85   11.70    0.00    4.09    0.15    0.00    0.00   34.60    4.53    4.72    4.26    0.00    0.00    0.00    0.00    0.06     0.00    0.00    0.00    0.00
   86    3.00    0.00    1.84    0.15    0.00    0.00   34.34    2.52    2.77    2.01    0.00    0.00    0.00    0.00    0.08     0.00    0.00    0.00    0.00
   87    1.00    0.00    0.67    0.15    0.00    0.00   32.26    3.02    3.44    0.83    0.00    0.00    0.00    0.00    0.05     0.00    0.00    0.00    0.00
   88    0.80    0.00    0.23    0.14    0.00    0.00   30.49    2.58    3.19    0.39    0.00    0.00    0.00    0.00    0.06     0.00    0.00    0.00    0.00
   89    0.00    0.00    0.08    0.14    0.00    0.00   28.31    2.17    2.99    0.24    0.00    0.00    0.00    0.00    0.06     0.00    0.00    0.00    0.00
   90    0.00    0.00    0.03    0.13    0.00    0.00   25.52    2.79    4.38    0.17    0.00    0.00    0.00    0.00    0.05     0.00    0.00    0.00    0.00
    3   93.80    0.00   35.24    8.01    0.00    0.00   25.52   84.98  115.44   43.83    0.00    0.00    0.00    0.00    1.45     0.00    0.00    0.00    0.00
   91    0.30    0.00    0.01    0.11    0.00    0.00   22.81    3.01    4.74    0.14    0.00    0.00    0.00    0.00    0.07     0.00    0.00    0.00    0.00
   92    0.30    0.00    0.00    0.11    0.00    0.00   21.45    1.66    3.41    0.13    0.00    0.00    0.00    0.00    0.07     0.00    0.00    0.00    0.00
   93    0.30    0.00    0.00    0.10    0.00    0.00   20.17    1.58    4.71    0.12    0.00    0.00    0.00    0.00    0.03     0.00    0.00    0.00    0.00
   94    2.50    0.00    0.38    0.08    0.00    0.00   19.86    2.24    4.20    0.48    0.00    0.00    0.00    0.00    0.03     0.00    0.00    0.00    0.00
   95    2.30    0.00    0.45    0.05    0.00    0.00   19.24    2.44    4.56    0.52    0.00    0.00    0.00    0.00    0.04     0.00    0.00    0.00    0.00
   96    4.30    0.00    1.00    0.05    0.00    0.00   18.89    3.37    5.22    1.07    0.00    0.00    0.00    0.00    0.04     0.00    0.00    0.00    0.00
   97    0.00    0.00    0.33    0.04    0.00    0.00   17.64    1.25    5.58    0.39    0.00    0.00    0.00    0.00    0.05     0.00    0.00    0.00    0.00
   98    0.00    0.00    0.11    0.04    0.00    0.00   16.71    0.92    4.32    0.17    0.00    0.00    0.00    0.00    0.03     0.00    0.00    0.00    0.00
   99    1.80    0.00    0.18    0.04    0.00    0.00   16.61    1.70    4.03    0.24    0.00    0.00    0.00    0.00    0.02     0.00    0.00    0.00    0.00
  100    0.00    0.00    0.06    0.04    0.00    0.00   15.70    0.90    4.44    0.12    0.00    0.00    0.00    0.00    0.03     0.00    0.00    0.00    0.00
  101   11.90    0.00    3.02    0.04    0.00    0.00   19.35    3.74    4.99    3.08    0.00    0.00    0.00    0.00    0.02     0.00    0.00    0.00    0.00
  102    1.80    0.00    1.18    0.04    0.00    0.00   18.12    2.76    3.71    1.24    0.00    0.00    0.00    0.00    0.06     0.00    0.00    0.00    0.00
  103    1.30    0.00    0.49    0.04    0.00    0.00   17.23    2.05    3.23    0.55    0.00    0.00    0.00    0.00    0.00     0.00    0.00    0.00    0.00
  104    2.80    0.00    0.72    0.04    0.00    0.00   17.40    1.79    2.73    0.78    0.00    0.00    0.00    0.00    0.00     0.00    0.00    0.00    0.00
  105    2.30    0.00    0.67    0.04    0.00    0.00   16.87    2.19    3.39    0.73    0.00    0.00    0.00    0.00    0.00     0.00    0.00    0.00    0.00
  106    0.00    0.00    0.23    0.04    0.00    0.00   16.42    0.45    1.46    0.28    0.00    0.00    0.00    0.00    0.00     0.00    0.00    0.00    0.00
  107    0.00    0.00    0.08    0.04    0.00    0.00   15.86    0.56    2.90    0.13    0.00    0.00    0.00    0.00    0.00     0.00    0.00    0.00    0.00
  108    0.00    0.00    0.03    0.04    0.00    0.00   15.57    0.29    1.18    0.08    0.00    0.00    0.00    0.00    0.00     0.00    0.00    0.00    0.00
  109    0.00    0.00    0.01    0.04    0.00    0.00   15.11    0.46    2.08    0.07    0.00    0.00    0.00    0.00    0.00     0.00    0.00    0.00    0.00
  110    0.30    0.00    0.00    0.04    0.00    0.00   14.90    0.50    2.25    0.06    0.00    0.00    0.00    0.00    0.00     0.00    0.00    0.00    0.00
  111    1.00    0.00    0.00    0.03    0.00    0.00   14.29    1.61    4.16    0.04    0.00    0.00    0.00    0.00    0.00     0.00    0.00    0.00    0.00
  112    1.30    0.00    0.05    0.03    0.00    0.00   14.15    1.37    3.43    0.09    0.00    0.00    0.00    0.00    0.00     0.00    0.00    0.00    0.00
  113   98.00   14.38   32.78    0.02    0.02    0.00   45.55    3.24    3.28   47.19    0.01    0.00    0.01    0.00    0.00     0.01    0.00    0.00    0.00
  114    0.80    0.00   10.65    0.02    0.00    0.00   44.66    1.69    1.88   10.69    0.00    0.00    0.00    0.00    0.00     0.00    0.00    0.00    0.00
  115    0.00    0.00    3.64    0.02    0.00    0.00   41.01    3.66    5.04    3.68    0.00    0.00    0.00    0.00    0.00     0.00    0.00    0.00    0.00
  116    0.50    0.00    1.25    0.02    0.00    0.00   38.36    3.15    4.80    1.28    0.00    0.00    0.00    0.00    0.00     0.00    0.00    0.00    0.00
  117    7.10    0.00    2.10    0.01    0.00    0.00   39.01    3.94    5.04    2.13    0.00    0.00    0.00    0.00    0.00     0.00    0.00    0.00    0.00
  118   24.90    0.05    9.73    0.02    0.03    0.00   47.49    2.89    4.24    9.82    0.00    0.00    0.00    0.00    0.00     0.00    0.00    0.00    0.00
  119    3.80    0.00    3.93    0.02    0.00    0.00   47.06    3.05    4.00    3.96    0.00    0.00    0.00    0.00    0.00     0.00    0.00    0.00    0.00
  120   69.30   15.60   27.90    0.02    0.53    0.00   58.04    2.84    3.39   43.51    0.01    0.00    0.02    0.00    0.00     0.01    0.00    0.00    0.00
    4  238.90   30.03  100.99    1.29    0.58    0.00   58.04   61.31  112.39  132.77    0.01    0.00    0.04    0.00    0.50     0.03    0.00    0.00    0.00
  121    4.60    0.00   10.05    0.02    0.03    0.00   58.30    2.56    2.89   10.08    0.00    0.00    0.01    0.00    0.00     0.00    0.00    0.00    0.00
  122    4.60    0.00    4.68    0.02    0.04    0.00   58.28    2.69    3.12    4.71    0.00    0.00    0.00    0.00    0.00     0.00    0.00    0.00    0.00
  123    4.60    0.00    2.80    0.02    0.03    0.00   58.16    2.86    3.42    2.84    0.00    0.00    0.00    0.00    0.00     0.00    0.00    0.00    0.00
  124    0.00    0.00    0.93    0.02    0.00    0.00   56.24    1.91    3.91    0.97    0.00    0.00    0.00    0.00    0.00     0.00    0.00    0.00    0.00
  125    0.00    0.00    0.32    0.02    0.00    0.00   54.38    1.87    4.99    0.35    0.00    0.00    0.00    0.00    0.00     0.00    0.00    0.00    0.00
  126    1.00    0.00    0.11    0.02    0.00    0.00   52.67    2.71    6.20    0.14    0.00    0.00    0.00    0.00    0.00     0.00    0.00    0.00    0.00
  127    2.00    0.00    0.29    0.02    0.00    0.00   51.76    2.53    5.43    0.32    0.00    0.00    0.00    0.00    0.00     0.00    0.00    0.00    0.00
  128    1.00    0.00    0.10    0.02    0.00    0.00   50.76    1.99    4.08    0.13    0.00    0.00    0.00    0.00    0.00     0.00    0.00    0.00    0.00
  129    0.00    0.00    0.03    0.02    0.00    0.00   49.46    1.30    4.94    0.07    0.00    0.00    0.00    0.00    0.00     0.00    0.00    0.00    0.00
  130    9.70    0.00    2.37    0.02    0.00    0.00   52.72    2.90    5.23    2.41    0.00    0.00    0.00    0.00    0.00     0.00    0.00    0.00    0.00
  131   33.50    2.04   14.53    0.02    0.45    0.00   61.41    1.91    2.08   16.60    0.00    0.00    0.02    0.00    0.00     0.00    0.00    0.00    0.00
  132    7.90    0.00    7.99    0.02    0.14    0.00   61.67    2.54    2.81    8.03    0.00    0.00    0.01    0.00    0.00     0.00    0.00    0.00    0.00
  133    1.80    0.00    2.86    0.02    0.00    0.00   60.50    2.66    3.35    2.89    0.00    0.00    0.00    0.00    0.00     0.00    0.00    0.00    0.00
  134    5.60    0.00    2.39    0.03    0.03    0.00   60.73    3.23    4.08    2.43    0.00    0.00    0.00    0.00    0.00     0.00    0.00    0.00    0.00
  135    0.50    0.00    0.79    0.03    0.00    0.00   58.81    2.42    4.28    0.83    0.00    0.00    0.00    0.00    0.00     0.00    0.00    0.00    0.00
  136    1.80    0.00    0.45    0.03    0.00    0.00   57.62    2.72    4.55    0.49    0.00    0.00    0.00    0.00    0.00     0.00    0.00    0.00    0.00
  137    0.00    0.00    0.15    0.03    0.00    0.00   55.99    1.63    4.55    0.19    0.00    0.00    0.00    0.00    0.00     0.00    0.00    0.00    0.00
  138    6.90    0.00    1.63    0.03    0.00    0.00   57.45    3.07    5.00    1.67    0.00    0.00    0.00    0.00    0.00     0.00    0.00    0.00    0.00
  139   11.90    0.00    4.35    0.03    0.08    0.00   60.43    3.16    3.93    4.39    0.00    0.00    0.00    0.00    0.00     0.00    0.00    0.00    0.00
  140    0.50    0.00    1.41    0.03    0.00    0.00   58.39    2.54    4.54    1.45    0.00    0.00    0.00    0.00    0.00     0.00    0.00    0.00    0.00
  141    0.00    0.00    0.48    0.03    0.00    0.00   56.44    1.95    5.22    0.52    0.00    0.00    0.00    0.00    0.00     0.00    0.00    0.00    0.00
  142    0.00    0.00    0.17    0.03    0.00    0.00   55.08    1.36    4.56    0.21    0.00    0.00    0.00    0.00    0.00     0.00    0.00    0.00    0.00
  143    5.60    0.00    1.26    0.03    0.00    0.00   56.34    2.53    4.28    1.30    0.00    0.00    0.00    0.00    0.00     0.00    0.00    0.00    0.00
  144    4.60    0.00    1.41    0.03    0.00    0.00   56.64    2.80    4.57    1.45    0.00    0.00    0.00    0.00    0.00     0.00    0.00    0.00    0.00
  145    0.00    0.00    0.47    0.03    0.00    0.00   54.70    1.94    5.39    0.51    0.00    0.00    0.00    0.00    0.00     0.00    0.00    0.00    0.00
  146    6.10    0.00    1.52    0.03    0.00    0.00   55.85    2.91    4.89    1.56    0.00    0.00    0.00    0.00    0.00     0.00    0.00    0.00    0.00
  147    1.30    0.00    0.58    0.03    0.00    0.00   54.64    2.40    4.25    0.62    0.00    0.00    0.00    0.00    0.00     0.00    0.00    0.00    0.00
  148    4.10    0.00    1.05    0.03    0.00    0.00   54.82    2.63    4.56    1.09    0.00    0.00    0.00    0.00    0.00     0.00    0.00    0.00    0.00
  149    0.80    0.00    0.35    0.03    0.00    0.00   53.25    2.37    5.15    0.39    0.00    0.00    0.00    0.00    0.00     0.00    0.00    0.00    0.00
  150   13.50    0.00    3.96    0.03    0.01    0.00   57.77    3.23    4.14    4.00    0.00    0.00    0.00    0.00    0.00     0.00    0.00    0.00    0.00
  151    0.80    0.00    1.30    0.03    0.00    0.00   56.41    2.16    3.19    1.34    0.00    0.00    0.00    0.00    0.00     0.00    0.00    0.00    0.00
    5  134.70    2.04   70.77    0.77    0.82    0.00   56.41   75.50  133.59   73.99    0.00    0.00    0.07    0.00    0.00     0.00    0.00    0.00    0.00
  152    1.80    0.00    0.64    0.03    0.00    0.00   55.58    2.34    3.46    0.68    0.00    0.00    0.00    0.00    0.00     0.00    0.00    0.00    0.00
  153    1.80    0.00    0.43    0.03    0.00    0.00   54.85    2.21    3.39    0.47    0.00    0.00    0.00    0.00    0.00     0.00    0.00    0.00    0.00
  154    0.00    0.00    0.15    0.03    0.00    0.00   53.30    1.55    4.37    0.18    0.00    0.00    0.00    0.00    0.00     0.00    0.00    0.00    0.00
  155    9.40    0.00    2.34    0.03    0.00    0.00   56.30    2.96    3.99    2.38    0.00    0.00    0.00    0.00    0.00     0.00    0.00    0.00    0.00
  156  174.20   99.33   39.18    0.03    1.64    0.00   70.31    2.57    2.78  138.50    0.21    0.00    0.10    0.01    0.00     0.46    0.01    0.06    0.00
  157    0.30    0.00   12.27    0.03    0.00    0.00   69.19    1.42    2.44   12.34    0.00    0.00    0.03    0.00    0.00     0.00    0.00    0.00    0.00
  158    1.80    0.00    4.40    0.03    0.00    0.00   69.03    1.63    1.81    4.45    0.00    0.00    0.01    0.00    0.00     0.00    0.00    0.00    0.00
  159    0.30    0.00    1.51    0.03    0.00    0.00   67.73    1.60    2.80    1.56    0.00    0.00    0.00    0.00    0.00     0.00    0.00    0.00    0.00
  160   11.70    0.00    4.61    0.04    0.14    0.00   70.64    2.58    2.79    4.66    0.00    0.00    0.01    0.00    0.00     0.00    0.00    0.00    0.00
  161    5.30    0.00    3.15    0.04    0.06    0.00   70.85    2.55    2.75    3.20    0.00    0.00    0.00    0.00    0.00     0.00    0.00    0.00    0.00
  162    0.30    0.00    1.04    0.04    0.00    0.00   69.82    1.33    2.27    1.09    0.00    0.00    0.00    0.00    0.00     0.00    0.00    0.00    0.00
  163    0.80    0.00    0.36    0.04    0.00    0.00   68.58    2.03    2.73    0.41    0.00    0.00    0.00    0.00    0.00     0.00    0.00    0.00    0.00
  164   10.70    0.00    3.78    0.04    0.12    0.00   71.23    2.50    2.66    3.84    0.00    0.00    0.00    0.00    0.00     0.00    0.00    0.00    0.00
  165    0.80    0.00    1.21    0.04    0.00    0.00   69.45    2.58    3.64    1.27    0.00    0.00    0.00    0.00    0.00     0.00    0.00    0.00    0.00
  166    1.80    0.00    0.61    0.04    0.00    0.00   68.57    2.38    3.20    0.67    0.00    0.00    0.00    0.00    0.00     0.00    0.00    0.00    0.00
  167   30.50    2.94   12.99    0.04    0.58    0.00   74.12    2.52    2.69   15.98    0.00    0.00    0.02    0.00    0.00     0.01    0.00    0.00    0.00
  168    0.80    0.00    4.11    0.05    0.00    0.00   72.37    2.55    3.56    4.16    0.00    0.00    0.01    0.00    0.00     0.00    0.00    0.00    0.00
  169    1.50    0.00    1.51    0.05    0.00    0.00   71.59    2.11    2.57    1.57    0.00    0.00    0.00    0.00    0.00     0.00    0.00    0.00    0.00
  170    0.50    0.00    0.52    0.05    0.00    0.00   70.82    1.27    2.34    0.58    0.00    0.00    0.00    0.00    0.00     0.00    0.00    0.00    0.00
  171    0.30    0.00    0.18    0.05    0.00    0.00   69.87    1.25    2.57    0.24    0.00    0.00    0.00    0.00    0.00     0.00    0.00    0.00    0.00
  172    0.00    0.00    0.06    0.05    0.00    0.00   68.43    1.44    3.73    0.12    0.00    0.00    0.00    0.00    0.00     0.00    0.00    0.00    0.00
  173    4.10    0.00    0.82    0.05    0.00    0.00   68.73    2.60    4.48    0.88    0.00    0.00    0.00    0.00    0.00     0.00    0.00    0.00    0.00
  174    6.10    0.00    1.68    0.05    0.00    0.00   69.98    2.72    3.94    1.74    0.00    0.00    0.00    0.00    0.00     0.00    0.00    0.00    0.00
  175    8.90    0.00    3.05    0.05    0.02    0.00   72.56    2.57    2.79    3.12    0.00    0.00    0.00    0.00    0.00     0.00    0.00    0.00    0.00
  176   17.30    0.29    8.73    0.05    0.37    0.00   75.80    1.97    2.08    9.08    0.00    0.00    0.02    0.00    0.00     0.00    0.00    0.00    0.00
  177    0.00    0.00    2.79    0.05    0.00    0.00   74.33    1.47    2.57    2.85    0.00    0.00    0.01    0.00    0.00     0.00    0.00    0.00    0.00
  178    0.00    0.00    0.95    0.05    0.00    0.00   73.62    0.71    1.46    1.01    0.00    0.00    0.00    0.00    0.00     0.00    0.00    0.00    0.00
  179    3.00    0.00    0.82    0.05    0.00    0.00   73.20    2.68    3.50    0.88    0.00    0.00    0.00    0.00    0.00     0.00    0.00    0.00    0.00
  180    0.30    0.00    0.28    0.05    0.00    0.00   71.98    1.52    2.97    0.34    0.00    0.00    0.00    0.00    0.00     0.00    0.00    0.00    0.00
  181    4.80    0.00    1.13    0.05    0.00    0.00   73.23    2.00    2.17    1.20    0.00    0.00    0.00    0.00    0.00     0.00    0.00    0.00    0.00
    6  299.10  102.55  115.32    1.28    2.92    0.00   73.23   61.59   88.47  219.46    0.21    0.00    0.23    0.02    0.00     0.47    0.01    0.06    0.00
  182    2.30    0.00    0.73    0.05    0.00    0.00   72.21    2.78    3.82    0.80    0.00    0.00    0.00    0.00    0.00     0.00    0.00    0.00    0.00
  183   14.00    0.07    5.53    0.05    0.20    0.00   75.12    2.99    3.44    5.66    0.00    0.00    0.01    0.00    0.00     0.00    0.00    0.00    0.00
  184    6.90    0.00    4.14    0.05    0.09    0.00   74.58    3.82    4.89    4.21    0.00    0.00    0.01    0.00    0.00     0.00    0.00    0.00    0.00
  185    0.00    0.00    1.36    0.06    0.00    0.00   72.55    2.04    4.30    1.42    0.00    0.00    0.00    0.00    0.00     0.00    0.00    0.00    0.00
  186    7.60    0.00    2.28    0.06    0.00    0.00   74.36    3.06    3.70    2.34    0.00    0.00    0.00    0.00    0.00     0.00    0.00    0.00    0.00
  187    1.50    0.00    0.88    0.06    0.00    0.00   72.86    2.81    3.88    0.95    0.00    0.00    0.00    0.00    0.00     0.00    0.00    0.00    0.00
  188    5.10    0.00    1.44    0.06    0.00    0.00   75.16    1.09    1.15    1.50    0.00    0.00    0.00    0.00    0.00     0.00    0.00    0.00    0.00
  189    0.30    0.00    0.48    0.06    0.00    0.00   74.03    1.43    1.85    0.54    0.00    0.00    0.00    0.00    0.00     0.00    0.00    0.00    0.00
  190    0.00    0.00    0.16    0.05    0.00    0.00   72.80    1.22    2.26    0.23    0.00    0.00    0.00    0.00    0.00     0.00    0.00    0.00    0.00
  191    2.80    0.00    0.55    0.05    0.00    0.00   72.76    2.10    2.39    0.61    0.00    0.00    0.00    0.00    0.00     0.00    0.00    0.00    0.00
  192    0.30    0.00    0.18    0.05    0.00    0.00   71.88    1.17    2.26    0.25    0.00    0.00    0.00    0.00    0.00     0.00    0.00    0.00    0.00
  193   14.70    0.11    5.45    0.05    0.21    0.00   76.24    2.04    2.14    5.62    0.00    0.00    0.01    0.00    0.00     0.00    0.00    0.00    0.00
  194   24.40    1.82   13.18    0.05    0.82    0.00   79.50    1.56    1.63   15.06    0.00    0.00    0.04    0.01    0.00     0.01    0.00    0.00    0.00
  195    2.00    0.00    4.55    0.06    0.01    0.00   79.08    1.89    1.98    4.61    0.00    0.00    0.01    0.00    0.00     0.00    0.00    0.00    0.00
  196    9.40    0.00    5.73    0.06    0.30    0.00   79.40    2.58    2.72    5.80    0.00    0.00    0.01    0.00    0.00     0.00    0.00    0.00    0.00
  197    5.10    0.00    3.43    0.06    0.08    0.00   79.08    3.01    3.42    3.49    0.00    0.00    0.01    0.00    0.00     0.00    0.00    0.00    0.00
  198   31.80    4.68   14.82    0.06    1.02    0.00   81.49    3.48    4.22   19.56    0.01    0.00    0.03    0.01    0.00     0.01    0.00    0.00    0.00
  199   10.40    0.01    8.83    0.06    0.28    0.00   82.40    3.05    3.46    8.91    0.00    0.00    0.02    0.00    0.00     0.00    0.00    0.00    0.00
  200   33.50    5.86   17.06    0.06    1.33    0.00   84.51    3.31    3.90   22.99    0.03    0.00    0.03    0.01    0.00     0.06    0.00    0.01    0.00
  201   27.40    3.54   17.36    0.06    1.20    0.00   87.05    2.50    2.61   20.97    0.00    0.00    0.03    0.01    0.00     0.03    0.00    0.00    0.00
  202    0.00    0.00    5.61    0.07    0.00    0.00   86.16    0.89    1.58    5.68    0.00    0.00    0.01    0.00    0.00     0.00    0.00    0.00    0.00
  203    0.00    0.00    1.92    0.07    0.00    0.00   84.96    1.19    2.30    1.99    0.00    0.00    0.00    0.00    0.00     0.00    0.00    0.00    0.00
  204    0.00    0.00    0.66    0.07    0.00    0.00   83.54    1.42    3.31    0.74    0.00    0.00    0.00    0.00    0.00     0.00    0.00    0.00    0.00
  205   13.70    0.16    5.03    0.07    0.26    0.00   85.79    3.89    4.87    5.27    0.00    0.00    0.00    0.00    0.00     0.00    0.00    0.00    0.00
  206    0.00    0.00    1.62    0.07    0.00    0.00   83.07    2.72    5.71    1.70    0.00    0.00    0.00    0.00    0.00     0.00    0.00    0.00    0.00
  207    0.00    0.00    0.55    0.08    0.00    0.00   81.32    1.75    4.85    0.64    0.00    0.00    0.00    0.00    0.00     0.00    0.00    0.00    0.00
  208   23.40    1.92    8.48    0.08    0.48    0.00   86.26    3.77    4.66   10.48    0.00    0.00    0.01    0.00    0.00     0.01    0.00    0.00    0.00
  209    4.10    0.00    3.55    0.08    0.00    0.00   85.74    3.33    4.17    3.64    0.00    0.00    0.00    0.00    0.00     0.00    0.00    0.00    0.00
  210    4.80    0.00    2.29    0.08    0.01    0.00   85.62    3.29    4.01    2.38    0.00    0.00    0.00    0.00    0.00     0.00    0.00    0.00    0.00
  211    0.50    0.00    0.77    0.09    0.00    0.00   83.78    2.34    3.87    0.86    0.00    0.00    0.00    0.00    0.00     0.00    0.00    0.00    0.00
  212    2.80    0.00    0.72    0.09    0.00    0.00   83.32    2.57    3.58    0.82    0.00    0.00    0.00    0.00    0.00     0.00    0.00    0.00    0.00
    7  248.80   18.18  139.34    1.97    6.28    0.00   83.32   75.11  102.93  159.76    0.04    0.00    0.25    0.04    0.00     0.12    0.00    0.01    0.00
  213    9.70    0.00    3.06    0.09    0.06    0.00   86.11    2.65    2.80    3.16    0.00    0.00    0.00    0.00    0.00     0.00    0.00    0.00    0.00
  214    0.30    0.00    0.99    0.09    0.00    0.00   84.76    1.65    2.72    1.09    0.00    0.00    0.00    0.00    0.00     0.00    0.00    0.00    0.00
  215   21.10    1.50    9.24    0.09    0.71    0.00   88.55    1.93    2.01   10.84    0.01    0.00    0.02    0.01    0.00     0.02    0.00    0.00    0.00
  216   14.00    0.26    9.76    0.10    0.77    0.00   88.09    3.29    3.81   10.13    0.00    0.00    0.02    0.01    0.00     0.00    0.00    0.00    0.00
  217   16.50    0.62   10.65    0.10    0.80    0.00   88.89    3.19    3.64   11.38    0.00    0.00    0.02    0.01    0.00     0.00    0.00    0.00    0.00
  218    4.80    0.00    4.65    0.10    0.03    0.00   88.55    3.35    3.91    4.76    0.00    0.00    0.01    0.00    0.00     0.00    0.00    0.00    0.00
  219    0.00    0.00    1.57    0.10    0.00    0.00   85.78    2.77    5.47    1.68    0.00    0.00    0.00    0.00    0.00     0.00    0.00    0.00    0.00
  220    0.50    0.00    0.54    0.10    0.00    0.00   83.51    2.77    6.27    0.65    0.00    0.00    0.00    0.00    0.00     0.00    0.00    0.00    0.00
  221    7.10    0.00    1.84    0.11    0.00    0.00   84.73    3.40    5.24    1.95    0.00    0.00    0.00    0.00    0.00     0.00    0.00    0.00    0.00
  222   74.70   33.02   21.38    0.11    2.24    0.00   90.98    2.67    2.79   54.50    0.18    0.00    0.04    0.02    0.00     0.38    0.00    0.05    0.00
  223    0.00    0.00    6.63    0.11    0.00    0.00   88.88    2.10    3.76    6.76    0.00    0.00    0.01    0.00    0.00     0.00    0.00    0.00    0.00
  224    0.30    0.00    2.26    0.11    0.00    0.00   87.72    1.45    2.91    2.38    0.00    0.00    0.00    0.00    0.00     0.00    0.00    0.00    0.00
  225    0.00    0.00    0.78    0.12    0.00    0.00   86.22    1.51    3.71    0.90    0.00    0.00    0.00    0.00    0.00     0.00    0.00    0.00    0.00
  226    0.00    0.00    0.27    0.12    0.00    0.00   84.61    1.60    4.66    0.40    0.00    0.00    0.00    0.00    0.00     0.00    0.00    0.00    0.00
  227   30.00    4.61   10.41    0.12    0.76    0.00   89.84    4.13    5.20   15.15    0.03    0.00    0.01    0.01    0.00     0.06    0.00    0.01    0.00
  228  103.10   58.34   27.19    0.13    3.15    0.00   93.23    3.19    3.60   85.65    0.71    0.00    0.04    0.04    0.00     1.57    0.00    0.19    0.00
  229   88.60   47.41   30.79    0.13    3.10    0.00   96.95    1.62    1.67   78.34    0.00    0.00    0.04    0.04    0.00     0.50    0.00    0.06    0.00
  230    8.10    0.00   13.53    0.14    0.49    0.00   97.18    1.73    1.79   13.70    0.00    0.00    0.02    0.01    0.00     0.00    0.00    0.00    0.00
  231   37.60   10.34   19.47    0.15    2.12    0.00   98.63    1.70    1.75   29.97    0.04    0.00    0.02    0.03    0.00     0.08    0.00    0.01    0.00
  232    0.50    0.00    6.19    0.16    0.00    0.00   98.00    1.13    1.42    6.37    0.00    0.00    0.01    0.00    0.00     0.00    0.00    0.00    0.00
  233   13.00    0.30    8.31    0.17    0.77    0.00   98.18    2.56    2.64    8.79    0.00    0.00    0.01    0.01    0.00     0.01    0.00    0.00    0.00
  234    0.00    0.00    2.69    0.17    0.00    0.00   95.16    3.02    5.41    2.88    0.00    0.00    0.00    0.00    0.00     0.00    0.00    0.00    0.00
  235    0.00    0.00    0.92    0.18    0.00    0.00   93.35    1.81    4.36    1.11    0.00    0.00    0.00    0.00    0.00     0.00    0.00    0.00    0.00
  236    1.30    0.00    0.32    0.19    0.00    0.00   92.38    2.27    3.47    0.52    0.00    0.00    0.00    0.00    0.00     0.00    0.00    0.00    0.00
  237    0.80    0.00    0.11    0.20    0.00    0.00   91.15    2.02    3.63    0.32    0.00    0.00    0.00    0.00    0.00     0.00    0.00    0.00    0.00
  238   30.20    5.52    9.80    0.20    0.71    0.00   97.63    3.06    3.33   15.54    0.04    0.00    0.01    0.01    0.00     0.07    0.00    0.01    0.00
  239    0.50    0.00    3.08    0.21    0.00    0.00   95.62    2.52    3.82    3.30    0.00    0.00    0.00    0.00    0.00     0.00    0.00    0.00    0.00
  240    0.00    0.00    1.05    0.21    0.00    0.00   93.80    1.81    4.00    1.27    0.00    0.00    0.00    0.00    0.00     0.00    0.00    0.00    0.00
  241    0.00    0.00    0.36    0.22    0.00    0.00   92.33    1.48    3.93    0.59    0.00    0.00    0.00    0.00    0.00     0.00    0.00    0.00    0.00
  242    0.00    0.00    0.12    0.22    0.00    0.00   90.57    1.76    5.27    0.36    0.00    0.00    0.00    0.00    0.00     0.00    0.00    0.00    0.00
  243    5.10    0.00    1.10    0.23    0.00    0.00   91.72    2.36    3.58    1.34    0.00    0.00    0.00    0.00    0.00     0.00    0.00    0.00    0.00
    8  467.80  161.93  209.08    4.48   15.72    0.00   91.72   72.50  112.54  375.76    1.00    0.01    0.28    0.17    0.00     2.68    0.01    0.33    0.00
  244   44.70   13.75   14.26    0.23    1.34    0.00   97.97    2.91    3.08   28.25    0.13    0.00    0.02    0.02    0.00     0.25    0.00    0.03    0.00
  245    2.80    0.00    4.93    0.24    0.00    0.00   97.49    2.54    2.65    5.18    0.00    0.00    0.01    0.00    0.00     0.00    0.00    0.00    0.00
  246    1.30    0.00    1.75    0.24    0.00    0.00   97.00    1.69    1.73    2.00    0.00    0.00    0.00    0.00    0.00     0.00    0.00    0.00    0.00
  247    0.00    0.00    0.60    0.24    0.00    0.00   95.05    1.95    3.45    0.85    0.00    0.00    0.00    0.00    0.00     0.00    0.00    0.00    0.00
  248    0.00    0.00    0.21    0.24    0.00    0.00   93.22    1.83    4.25    0.46    0.00    0.00    0.00    0.00    0.00     0.00    0.00    0.00    0.00
  249    0.00    0.00    0.07    0.25    0.00    0.00   91.55    1.67    4.64    0.33    0.00    0.00    0.00    0.00    0.00     0.00    0.00    0.00    0.00
  250   25.10    3.35    8.24    0.25    0.51    0.00   96.30    4.36    5.45   11.84    0.03    0.00    0.01    0.01    0.00     0.05    0.00    0.01    0.00
  251   12.70    0.23    7.65    0.25    0.45    0.00   97.76    3.06    3.31    8.14    0.00    0.00    0.01    0.01    0.00     0.00    0.00    0.00    0.00
  252    7.40    0.00    5.23    0.25    0.23    0.00   97.95    2.93    3.10    5.49    0.00    0.00    0.01    0.00    0.00     0.00    0.00    0.00    0.00
  253    3.60    0.00    2.46    0.25    0.01    0.00   96.70    3.74    4.50    2.72    0.00    0.00    0.00    0.00    0.00     0.00    0.00    0.00    0.00
  254    0.30    0.00    0.83    0.25    0.00    0.00   93.69    3.31    6.15    1.10    0.00    0.00    0.00    0.00    0.00     0.00    0.00    0.00    0.00
  255    1.30    0.00    0.32    0.25    0.00    0.00   91.39    3.56    6.82    0.58    0.00    0.00    0.00    0.00    0.00     0.00    0.00    0.00    0.00
  256    8.40    0.00    2.16    0.25    0.00    0.00   92.78    3.91    5.94    2.43    0.00    0.00    0.00    0.00    0.00     0.00    0.00    0.00    0.00
  257    0.30    0.00    0.72    0.25    0.00    0.00   90.72    2.37    5.12    0.98    0.00    0.00    0.00    0.00    0.00     0.00    0.00    0.00    0.00
  258    2.30    0.00    0.56    0.25    0.00    0.00   89.79    2.76    4.99    0.82    0.00    0.00    0.00    0.00    0.00     0.00    0.00    0.00    0.00
  259    3.30    0.00    0.82    0.25    0.00    0.00   89.23    2.91    5.39    1.08    0.00    0.00    0.00    0.00    0.00     0.00    0.00    0.00    0.00
  260    5.60    0.00    1.55    0.25    0.00    0.00   90.45    2.46    3.56    1.81    0.00    0.00    0.00    0.00    0.00     0.00    0.00    0.00    0.00
  261   16.50    0.69    5.91    0.25    0.11    0.00   94.15    3.98    4.89    6.86    0.01    0.00    0.00    0.00    0.00     0.01    0.00    0.00    0.00
  262    0.30    0.00    1.91    0.25    0.00    0.00   92.02    2.42    4.38    2.17    0.00    0.00    0.00    0.00    0.00     0.00    0.00    0.00    0.00
  263    0.30    0.00    0.65    0.24    0.00    0.00   89.55    2.77    6.42    0.91    0.00    0.00    0.00    0.00    0.00     0.00    0.00    0.00    0.00
  264   14.70    0.35    4.53    0.24    0.08    0.00   93.76    3.64    4.34    5.13    0.00    0.00    0.00    0.00    0.00     0.01    0.00    0.00    0.00
  265    1.50    0.00    1.60    0.24    0.00    0.00   91.86    3.21    4.54    1.85    0.00    0.00    0.00    0.00    0.00     0.00    0.00    0.00    0.00
  266    0.30    0.00    0.54    0.24    0.00    0.00   89.00    3.16    6.90    0.79    0.00    0.00    0.00    0.00    0.00     0.00    0.00    0.00    0.00
  267    0.00    0.00    0.19    0.24    0.00    0.00   86.73    2.26    6.87    0.43    0.00    0.00    0.00    0.00    0.00     0.00    0.00    0.00    0.00
  268    0.50    0.00    0.06    0.23    0.00    0.00   84.87    2.37    7.17    0.31    0.00    0.00    0.00    0.00    0.00     0.00    0.00    0.00    0.00
  269    0.00    0.00    0.02    0.23    0.00    0.00   82.99    1.88    7.48    0.26    0.00    0.00    0.00    0.00    0.00     0.00    0.00    0.00    0.00
  270    0.00    0.00    0.01    0.23    0.00    0.00   81.24    1.75    8.04    0.25    0.00    0.00    0.00    0.00    0.00     0.00    0.00    0.00    0.00
  271   10.90    0.00    2.68    0.22    0.00    0.00   85.08    3.02    5.92    2.92    0.00    0.00    0.00    0.00    0.00     0.00    0.00    0.00    0.00
  272    0.30    0.00    0.89    0.22    0.00    0.00   83.79    1.59    4.02    1.12    0.00    0.00    0.00    0.00    0.00     0.00    0.00    0.00    0.00
  273    2.30    0.00    0.61    0.22    0.00    0.00   83.13    2.50    5.20    0.84    0.00    0.00    0.00    0.00    0.00     0.00    0.00    0.00    0.00
    9  166.70   18.36   71.94    7.25    2.72    0.00   83.13   82.51  150.30   97.89    0.16    0.00    0.07    0.03    0.00     0.32    0.00    0.04    0.00
  274    0.00    0.00    0.21    0.21    0.00    0.00   81.61    1.51    5.18    0.43    0.00    0.00    0.00    0.00    0.00     0.00    0.00    0.00    0.00
  275    7.10    0.00    1.71    0.21    0.00    0.00   83.99    2.26    3.74    1.93    0.00    0.00    0.00    0.00    0.00     0.00    0.00    0.00    0.00
  276    0.50    0.00    0.56    0.21    0.00    0.00   82.55    1.94    4.51    0.78    0.00    0.00    0.00    0.00    0.00     0.00    0.00    0.00    0.00
  277    0.00    0.00    0.19    0.19    0.00    0.00   80.84    1.71    5.98    0.39    0.00    0.00    0.00    0.00    0.00     0.00    0.00    0.00    0.00
  278    0.50    0.00    0.07    0.18    0.00    0.00   79.56    1.78    5.73    0.26    0.00    0.00    0.00    0.00    0.00     0.00    0.00    0.00    0.00
  279    1.50    0.00    0.11    0.18    0.00    0.00   79.05    1.88    3.84    0.30    0.00    0.00    0.00    0.00    0.00     0.00    0.00    0.00    0.00
  280    2.50    0.00    0.44    0.17    0.00    0.00   78.92    2.02    4.35    0.63    0.00    0.00    0.00    0.00    0.00     0.00    0.00    0.00    0.00
  281    0.30    0.00    0.15    0.17    0.00    0.00   78.17    1.06    3.21    0.33    0.00    0.00    0.00    0.00    0.00     0.00    0.00    0.00    0.00
  282    0.50    0.00    0.05    0.15    0.00    0.00   77.22    1.45    4.46    0.21    0.00    0.00    0.00    0.00    0.00     0.00    0.00    0.00    0.00
  283   72.40   28.95   16.87    0.15    0.63    0.00   91.53    3.67    4.37   45.98    0.35    0.00    0.03    0.01    0.00     0.68    0.00    0.08    0.00
  284    9.90    0.00    8.89    0.15    0.14    0.00   92.10    3.80    4.57    9.05    0.00    0.00    0.01    0.00    0.00     0.00    0.00    0.00    0.00
  285    0.30    0.00    2.94    0.14    0.00    0.00   89.95    2.45    4.35    3.10    0.00    0.00    0.00    0.00    0.00     0.00    0.00    0.00    0.00
  286    6.10    0.00    2.38    0.14    0.00    0.00   90.40    3.59    4.77    2.53    0.00    0.00    0.00    0.00    0.00     0.00    0.00    0.00    0.00
  287    0.30    0.00    0.80    0.11    0.00    0.00   87.73    2.97    6.00    0.92    0.00    0.00    0.00    0.00    0.00     0.00    0.00    0.00    0.00
  288   43.70   12.29   14.27    0.11    0.92    0.00   93.52    4.10    5.04   26.67    0.13    0.00    0.03    0.01    0.00     0.24    0.00    0.03    0.00
  289    0.00    0.00    4.44    0.11    0.00    0.00   90.85    2.67    5.45    4.57    0.00    0.00    0.01    0.00    0.00     0.00    0.00    0.00    0.00
  290    2.30    0.00    1.81    0.11    0.00    0.00   89.55    3.16    5.41    1.93    0.00    0.00    0.00    0.00    0.00     0.00    0.00    0.00    0.00
  291    2.00    0.00    0.89    0.11    0.00    0.00   87.70    3.45    6.86    1.00    0.00    0.00    0.00    0.00    0.00     0.00    0.00    0.00    0.00
  292   27.40    3.88    9.24    0.11    0.45    0.00   93.44    4.10    5.03   13.24    0.07    0.00    0.01    0.01    0.00     0.14    0.00    0.02    0.00
  293    6.10    0.00    4.48    0.11    0.03    0.00   92.92    4.26    5.31    4.60    0.00    0.00    0.00    0.00    0.00     0.00    0.00    0.00    0.00
  294    0.00    0.00    1.50    0.11    0.00    0.00   90.24    2.68    5.58    1.62    0.00    0.00    0.00    0.00    0.00     0.00    0.00    0.00    0.00
  295    0.00    0.00    0.52    0.11    0.00    0.00   88.25    1.99    5.40    0.63    0.00    0.00    0.00    0.00    0.00     0.00    0.00    0.00    0.00
  296    0.00    0.00    0.18    0.11    0.00    0.00   86.01    2.24    7.16    0.30    0.00    0.00    0.00    0.00    0.00     0.00    0.00    0.00    0.00
  297    1.00    0.00    0.06    0.11    0.00    0.00   84.57    2.44    6.11    0.18    0.00    0.00    0.00    0.00    0.00     0.00    0.00    0.00    0.00
  298    0.00    0.00    0.02    0.10    0.00    0.00   82.90    1.67    6.24    0.14    0.00    0.00    0.00    0.00    0.00     0.00    0.00    0.00    0.00
  299    0.00    0.00    0.01    0.10    0.00    0.00   81.50    1.41    6.21    0.12    0.00    0.00    0.00    0.00    0.00     0.00    0.00    0.00    0.00
  300    0.00    0.00    0.00    0.09    0.00    0.00   79.85    1.64    7.95    0.11    0.00    0.00    0.00    0.00    0.00     0.00    0.00    0.00    0.00
  301    0.00    0.00    0.00    0.09    0.00    0.00   78.56    1.30    6.86    0.10    0.00    0.00    0.00    0.00    0.00     0.00    0.00    0.00    0.00
  302    0.30    0.00    0.00    0.09    0.00    0.00   77.76    1.10    4.85    0.10    0.00    0.00    0.00    0.00    0.00     0.00    0.00    0.00    0.00
  303   12.70    0.01    3.20    0.09    0.00    0.00   83.11    2.53    4.77    3.31    0.00    0.00    0.00    0.00    0.00     0.00    0.00    0.00    0.00
  304   37.10    7.78   12.32    0.09    0.37    0.00   91.80    3.59    4.22   20.20    0.31    0.00    0.02    0.00    0.00     0.51    0.00    0.06    0.00
   10  234.50   52.92   88.30    4.10    2.55    0.00   91.80   76.42  163.50  145.65    0.86    0.01    0.14    0.03    0.00     1.57    0.00    0.19    0.00
  305    1.30    0.00    3.99    0.09    0.00    0.00   89.32    3.67    5.51    4.09    0.00    0.00    0.00    0.00    0.00     0.00    0.00    0.00    0.00
  306    3.60    0.00    2.07    0.09    0.00    0.00   89.64    2.20    2.61    2.18    0.00    0.00    0.00    0.00    0.00     0.00    0.00    0.00    0.00
  307    0.00    0.00    0.70    0.09    0.00    0.00   86.97    2.66    6.10    0.81    0.00    0.00    0.00    0.00    0.00     0.00    0.00    0.00    0.00
  308    0.00    0.00    0.24    0.09    0.00    0.00   84.43    2.55    7.61    0.34    0.00    0.00    0.00    0.00    0.00     0.00    0.00    0.00    0.00
  309    0.00    0.00    0.08    0.08    0.00    0.00   82.41    2.02    7.33    0.18    0.00    0.00    0.00    0.00    0.00     0.00    0.00    0.00    0.00
  310    0.00    0.00    0.03    0.08    0.00    0.00   80.67    1.74    7.25    0.12    0.00    0.00    0.00    0.00    0.00     0.00    0.00    0.00    0.00
  311    0.00    0.00    0.01    0.08    0.00    0.00   79.14    1.53    7.04    0.10    0.00    0.00    0.00    0.00    0.00     0.00    0.00    0.00    0.00
  312    3.00    0.00    0.48    0.08    0.00    0.00   78.96    2.47    6.63    0.57    0.00    0.00    0.00    0.00    0.00     0.00    0.00    0.00    0.00
  313    5.30    0.00    1.35    0.08    0.00    0.00   80.09    2.38    5.38    1.44    0.00    0.00    0.00    0.00    0.00     0.00    0.00    0.00    0.00
  314    3.60    0.00    1.16    0.08    0.00    0.00   80.75    1.86    3.14    1.25    0.00    0.00    0.00    0.00    0.00     0.00    0.00    0.00    0.00
  315    3.00    0.00    0.94    0.08    0.00    0.00   80.76    2.17    4.06    1.02    0.00    0.00    0.00    0.00    0.00     0.00    0.00    0.00    0.00
  316    1.30    0.00    0.39    0.07    0.00    0.00   79.90    2.05    3.87    0.47    0.00    0.00    0.00    0.00    0.00     0.00    0.00    0.00    0.00
  317   38.40    7.91   11.48    0.07    0.33    0.00   89.58    3.67    4.38   19.47    0.18    0.00    0.02    0.00    0.00     0.33    0.00    0.04    0.00
  318    0.00    0.00    3.64    0.07    0.00    0.00   87.78    1.80    3.45    3.72    0.00    0.00    0.01    0.00    0.00     0.00    0.00    0.00    0.00
  319    0.00    0.00    1.24    0.07    0.00    0.00   87.17    0.61    1.43    1.32    0.00    0.00    0.00    0.00    0.00     0.00    0.00    0.00    0.00
  320    0.00    0.00    0.43    0.07    0.00    0.00   85.07    2.09    5.47    0.51    0.00    0.00    0.00    0.00    0.00     0.00    0.00    0.00    0.00
  321    0.00    0.00    0.15    0.07    0.00    0.00   83.84    1.23    3.82    0.23    0.00    0.00    0.00    0.00    0.00     0.00    0.00    0.00    0.00
  322    9.40    0.00    2.31    0.07    0.00    0.00   86.17    3.67    5.34    2.39    0.00    0.00    0.00    0.00    0.00     0.00    0.00    0.00    0.00
  323    4.80    0.00    1.82    0.07    0.00    0.00   85.14    4.25    6.50    1.89    0.00    0.00    0.00    0.00    0.00     0.00    0.00    0.00    0.00
  324    8.60    0.00    2.87    0.06    0.01    0.00   87.59    2.76    3.00    2.94    0.00    0.00    0.00    0.00    0.00     0.00    0.00    0.00    0.00
  325    2.30    0.00    1.30    0.05    0.00    0.00   85.85    3.51    4.73    1.36    0.00    0.00    0.00    0.00    0.00     0.00    0.00    0.00    0.00
  326    3.30    0.00    1.07    0.04    0.00    0.00   85.32    2.89    3.87    1.12    0.00    0.00    0.00    0.00    0.00     0.00    0.00    0.00    0.00
  327    0.30    0.00    0.36    0.04    0.00    0.00   83.42    2.20    4.40    0.41    0.00    0.00    0.00    0.00    0.00     0.00    0.00    0.00    0.00
  328   48.30   14.16   15.26    0.04    0.87    0.00   90.68    3.72    4.43   29.46    0.39    0.00    0.04    0.01    0.00     0.69    0.00    0.08    0.00
  329    0.00    0.00    4.74    0.04    0.00    0.00   88.10    2.58    5.11    4.80    0.00    0.00    0.01    0.00    0.00     0.00    0.00    0.00    0.00
  330    0.00    0.00    1.61    0.04    0.00    0.00   85.62    2.48    6.46    1.67    0.00    0.00    0.00    0.00    0.00     0.00    0.00    0.00    0.00
  331    5.30    0.00    1.68    0.05    0.00    0.00   85.80    3.44    6.02    1.73    0.00    0.00    0.00    0.00    0.00     0.00    0.00    0.00    0.00
  332    6.10    0.00    1.97    0.05    0.00    0.00   86.42    3.36    5.12    2.03    0.00    0.00    0.00    0.00    0.00     0.00    0.00    0.00    0.00
  333    0.50    0.00    0.66    0.05    0.00    0.00   84.08    2.84    6.09    0.72    0.00    0.00    0.00    0.00    0.00     0.00    0.00    0.00    0.00
  334   32.50    5.65   11.00    0.05    0.52    0.00   91.16    3.33    3.77   16.70    0.25    0.00    0.02    0.01    0.00     0.39    0.00    0.05    0.00
   11  180.90   27.72   75.03    2.02    1.74    0.00   91.16   77.74  149.90  105.05    0.81    0.00    0.12    0.02    0.00     1.40    0.00    0.17    0.00
  335   10.90    0.03    7.96    0.05    0.32    0.00   91.11    3.94    4.76    8.04    0.00    0.00    0.02    0.01    0.00     0.00    0.00    0.00    0.00
  336    0.30    0.00    2.61    0.05    0.00    0.00   90.15    1.27    2.20    2.67    0.00    0.00    0.01    0.00    0.00     0.00    0.00    0.00    0.00
  337    5.80    0.00    2.24    0.05    0.00    0.00   89.75    4.16    5.42    2.30    0.00    0.00    0.00    0.00    0.00     0.00    0.00    0.00    0.00
  338    2.30    0.00    1.10    0.05    0.00    0.00   88.16    3.36    5.02    1.16    0.00    0.00    0.00    0.00    0.00     0.00    0.00    0.00    0.00
  339    4.30    0.00    1.29    0.05    0.00    0.00   87.87    3.22    4.69    1.35    0.00    0.00    0.00    0.00    0.00     0.00    0.00    0.00    0.00
  340   22.60    2.12    8.95    0.05    0.55    0.00   91.17    4.04    4.92   11.14    0.16    0.00    0.02    0.01    0.00     0.22    0.00    0.03    0.00
  341   14.50    0.36    8.92    0.06    0.53    0.00   92.53    3.23    3.60    9.34    0.00    0.00    0.02    0.01    0.00     0.02    0.00    0.00    0.00
  342    0.50    0.00    2.89    0.06    0.00    0.00   90.17    2.85    4.57    2.96    0.00    0.00    0.01    0.00    0.00     0.00    0.00    0.00    0.00
  343   50.50   17.14   17.47    0.06    1.87    0.00   94.01    3.41    3.87   34.68    1.22    0.00    0.05    0.03    0.00     1.70    0.00    0.21    0.00
  344   21.60    2.24   14.92    0.06    1.13    0.00   94.85    3.38    3.81   17.24    0.00    0.00    0.04    0.02    0.00     0.13    0.00    0.02    0.00
  345   41.10   12.06   19.98    0.07    2.00    0.00   97.31    2.31    2.33   32.11    1.28    0.00    0.05    0.04    0.00     1.54    0.00    0.19    0.00
  346    1.30    0.00    6.42    0.07    0.00    0.00   95.53    2.97    3.53    6.51    0.00    0.00    0.01    0.00    0.00     0.00    0.00    0.00    0.00
  347   17.50    1.12    9.63    0.08    0.83    0.00   96.92    3.16    3.44   10.84    0.06    0.00    0.02    0.02    0.00     0.08    0.00    0.01    0.00
  348    8.40    0.00    6.36    0.08    0.29    0.00   96.19    4.00    4.78    6.45    0.00    0.00    0.01    0.01    0.00     0.00    0.00    0.00    0.00
  349    1.50    0.00    2.23    0.09    0.00    0.00   94.09    3.41    4.93    2.32    0.00    0.00    0.00    0.00    0.00     0.00    0.00    0.00    0.00
  350    1.00    0.00    0.76    0.09    0.00    0.00   91.57    3.52    6.38    0.86    0.00    0.00    0.00    0.00    0.00     0.00    0.00    0.00    0.00
  351    6.60    0.00    1.81    0.09    0.00    0.00   91.27    4.57    7.72    1.92    0.00    0.00    0.00    0.00    0.00     0.00    0.00    0.00    0.00
  352    3.30    0.00    1.23    0.10    0.00    0.00   89.68    3.94    7.43    1.34    0.00    0.00    0.00    0.00    0.00     0.00    0.00    0.00    0.00
  353    0.00    0.00    0.42    0.10    0.00    0.00   87.15    2.53    7.48    0.52    0.00    0.00    0.00    0.00    0.00     0.00    0.00    0.00    0.00
  354    6.40    0.00    1.58    0.10    0.00    0.00   88.00    3.39    6.55    1.69    0.00    0.00    0.00    0.00    0.00     0.00    0.00    0.00    0.00
  355    6.60    0.00    2.08    0.10    0.00    0.00   89.20    3.07    4.79    2.19    0.00    0.00    0.00    0.00    0.00     0.00    0.00    0.00    0.00
  356    0.00    0.00    0.69    0.11    0.00    0.00   87.21    1.99    5.03    0.81    0.00    0.00    0.00    0.00    0.00     0.00    0.00    0.00    0.00
  357    3.30    0.00    0.81    0.11    0.00    0.00   87.37    2.28    3.55    0.93    0.00    0.00    0.00    0.00    0.00     0.00    0.00    0.00    0.00
  358   16.30    0.54    5.24    0.11    0.02    0.00   92.10    3.59    4.26    5.90    0.01    0.00    0.00    0.00    0.00     0.02    0.00    0.00    0.00
  359    3.30    0.00    2.34    0.11    0.00    0.00   91.51    2.94    3.52    2.46    0.00    0.00    0.00    0.00    0.00     0.00    0.00    0.00    0.00
  360    2.00    0.00    1.06    0.11    0.00    0.00   90.44    2.68    3.42    1.18    0.00    0.00    0.00    0.00    0.00     0.00    0.00    0.00    0.00
  361    1.00    0.00    0.36    0.11    0.00    0.00   88.63    2.80    4.38    0.48    0.00    0.00    0.00    0.00    0.00     0.00    0.00    0.00    0.00
  362    0.00    0.00    0.12    0.11    0.00    0.00   86.56    2.07    5.33    0.25    0.00    0.00    0.00    0.00    0.00     0.00    0.00    0.00    0.00
  363    7.10    0.00    1.68    0.11    0.00    0.00   87.59    3.61    5.82    1.80    0.00    0.00    0.00    0.00    0.00     0.00    0.00    0.00    0.00
  364    1.00    0.00    0.55    0.12    0.00    0.00   86.30    2.29    3.69    0.68    0.00    0.00    0.00    0.00    0.00     0.00    0.00    0.00    0.00
  365   48.80   15.18   14.46    0.12    0.77    0.00   94.28    3.88    4.62   29.76    1.46    0.00    0.02    0.01    0.00     1.74    0.00    0.21    0.00
   12  309.80   50.80  148.17    2.65    8.30    0.00   94.28   97.85  145.82  201.88    4.19    0.00    0.28    0.15    0.00     5.44    0.00    0.67    0.00

 2013 3096.30  659.73 1428.41   55.80   75.99    0.00   94.28  922.88 1499.12 2148.39   20.63    0.04    2.18    1.54    7.54    44.55    0.03    5.45    0.00
1
    SWAT Dec 23 2016    VER 2016/Rev 664                                            

    General Input/Output section (file.cio):                                        
    2/12/2020 14:38:04 QSWAT Workflow v1.5.2                                        
                                                                                    
Annual Summary for Watershed in year    5 of simulation

UNIT                                    PERCO    TILE                           WATER     SED     NO3     NO3     NO3     NO3        N       P       P
TIME     PREC    SURQ    LATQ     GWQ    LATE       Q     SW       ET     PET   YIELD   YIELD    SURQ    LATQ    PERC    CROP  ORGANIC SOLUBLE ORGANIC TILENO3
         (mm)    (mm)    (mm)    (mm)    (mm)    (mm)    (mm)    (mm)    (mm)    (mm)   (t/ha)  ------------------(kg nutrient/ha)-------------------- (kg/ha)
    1   88.40   47.68   26.07    0.12    2.83    0.00   98.39    2.19    2.21   73.87    3.63    0.00    0.06    0.06    0.00    11.44    0.00    1.40    0.00
    2   60.50   26.44   27.07    0.13    2.92    0.00   99.26    2.47    2.49   53.65    0.00    0.00    0.06    0.06    0.00     5.46    0.00    0.67    0.00
    3   51.10   19.70   26.18    0.14    2.93    0.00   98.33    3.55    4.03   46.03    1.94    0.00    0.06    0.06    0.00     3.57    0.00    0.44    0.00
    4   32.50    7.62   21.46    0.15    2.03    0.00   98.14    3.74    4.34   29.24    0.00    0.00    0.04    0.05    0.00     0.69    0.00    0.08    0.00
    5    3.60    0.00    7.66    0.16    0.00    0.00   97.33    3.33    4.02    7.83    0.00    0.00    0.01    0.00    0.00     0.00    0.00    0.00    0.00
    6   38.60   10.99   16.86    0.17    2.10    0.00   99.48    2.40    2.42   28.02    0.93    0.00    0.03    0.05    0.00     1.66    0.00    0.20    0.00
    7   32.30    7.67   18.87    0.18    2.27    0.00   99.24    2.64    2.66   26.72    0.00    0.00    0.04    0.05    0.00     1.09    0.00    0.13    0.00
    8   29.50    6.15   18.69    0.19    2.06    0.00   98.99    2.90    2.99   25.04    0.41    0.00    0.03    0.05    0.00     0.73    0.00    0.09    0.00
    9   29.20    5.97   18.46    0.21    1.98    0.00   99.12    2.76    2.78   24.65    0.04    0.00    0.03    0.05    0.00     0.78    0.00    0.09    0.00
   10    2.50    0.00    6.35    0.22    0.00    0.00   97.81    3.19    3.70    6.58    0.00    0.00    0.01    0.00    0.00     0.00    0.00    0.00    0.00
   11    1.30    0.00    2.24    0.23    0.00    0.00   96.10    2.91    3.85    2.48    0.00    0.00    0.00    0.00    0.00     0.00    0.00    0.00    0.00
   12    0.50    0.00    0.77    0.24    0.00    0.00   94.25    2.35    4.21    1.02    0.00    0.00    0.00    0.00    0.00     0.00    0.00    0.00    0.00
   13    0.50    0.00    0.27    0.25    0.00    0.00   92.47    2.28    4.87    0.53    0.00    0.00    0.00    0.00    0.00     0.00    0.00    0.00    0.00
   14    7.10    0.00    1.75    0.26    0.00    0.00   93.26    3.81    6.06    2.02    0.00    0.00    0.00    0.00    0.00     0.00    0.00    0.00    0.00
   15    0.00    0.00    0.58    0.27    0.00    0.00   90.65    2.61    6.64    0.86    0.00    0.00    0.00    0.00    0.00     0.00    0.00    0.00    0.00
   16   45.50   14.06   13.41    0.28    1.03    0.00   97.24    4.39    5.38   27.76    1.89    0.00    0.01    0.02    0.00     2.85    0.00    0.35    0.00
   17    0.50    0.00    4.16    0.29    0.00    0.00   95.19    2.55    4.28    4.47    0.00    0.00    0.00    0.00    0.00     0.00    0.00    0.00    0.00
   18    0.00    0.00    1.42    0.29    0.00    0.00   93.20    1.99    4.82    1.72    0.00    0.00    0.00    0.00    0.00     0.00    0.00    0.00    0.00
   19    2.80    0.00    0.91    0.30    0.00    0.00   92.41    2.94    5.15    1.22    0.00    0.00    0.00    0.00    0.00     0.00    0.00    0.00    0.00
   20    8.10    0.00    2.28    0.30    0.00    0.00   93.91    3.63    5.20    2.60    0.00    0.00    0.00    0.00    0.00     0.00    0.00    0.00    0.00
   21    1.00    0.00    0.76    0.31    0.00    0.00   91.73    3.19    5.50    1.08    0.00    0.00    0.00    0.00    0.00     0.00    0.00    0.00    0.00
   22    5.30    0.00    1.45    0.31    0.00    0.00   91.34    3.90    6.58    1.77    0.00    0.00    0.00    0.00    0.00     0.00    0.00    0.00    0.00
   23    1.30    0.00    0.55    0.31    0.00    0.00   89.03    3.50    7.09    0.88    0.00    0.00    0.00    0.00    0.00     0.00    0.00    0.00    0.00
   24   11.20    0.02    3.06    0.31    0.00    0.00   91.72    4.18    5.79    3.40    0.00    0.00    0.00    0.00    0.00     0.00    0.00    0.00    0.00
   25   44.40   13.55   14.98    0.32    1.01    0.00   97.81    3.21    3.49   28.86    0.86    0.00    0.02    0.02    0.00     1.49    0.00    0.18    0.00
   26   33.80    8.26   17.99    0.32    1.85    0.00   98.57    3.31    3.65   26.58    0.15    0.00    0.03    0.04    0.00     1.43    0.00    0.17    0.00
   27    5.60    0.00    7.31    0.33    0.05    0.00   97.16    4.62    5.74    7.65    0.00    0.00    0.01    0.00    0.00     0.00    0.00    0.00    0.00
   28    0.50    0.00    2.46    0.33    0.00    0.00   94.68    2.97    5.31    2.80    0.00    0.00    0.00    0.00    0.00     0.00    0.00    0.00    0.00
   29    0.80    0.00    0.85    0.33    0.00    0.00   92.61    2.87    5.71    1.19    0.00    0.00    0.00    0.00    0.00     0.00    0.00    0.00    0.00
   30    4.80    0.00    1.32    0.33    0.00    0.00   92.42    3.44    6.09    1.67    0.00    0.00    0.00    0.00    0.00     0.00    0.00    0.00    0.00
   31    6.40    0.00    1.94    0.34    0.00    0.00   92.88    3.69    5.79    2.29    0.00    0.00    0.00    0.00    0.00     0.00    0.00    0.00    0.00
    1  549.60  168.11  268.11    7.91   23.06    0.00   92.88   97.55  142.84  444.48    9.85    0.00    0.47    0.51    0.00    31.18    0.01    3.81    0.00
   32    1.00    0.00    0.65    0.34    0.00    0.00   90.90    2.98    5.40    1.00    0.00    0.00    0.00    0.00    0.00     0.00    0.00    0.00    0.00
   33    3.00    0.00    0.77    0.34    0.00    0.00   89.57    3.51    7.01    1.12    0.00    0.00    0.00    0.00    0.00     0.00    0.00    0.00    0.00
   34    0.50    0.00    0.26    0.34    0.00    0.00   87.61    2.46    6.30    0.61    0.00    0.00    0.00    0.00    0.00     0.00    0.00    0.00    0.00
   35    0.00    0.00    0.09    0.34    0.00    0.00   85.83    1.78    6.39    0.44    0.00    0.00    0.00    0.00    0.00     0.00    0.00    0.00    0.00
   36    0.00    0.00    0.03    0.33    0.00    0.00   84.32    1.51    6.34    0.38    0.00    0.00    0.00    0.00    0.00     0.00    0.00    0.00    0.00
   37    0.00    0.00    0.01    0.33    0.00    0.00   83.35    0.97    4.47    0.36    0.00    0.00    0.00    0.00    0.00     0.00    0.00    0.00    0.00
   38    0.00    0.00    0.00    0.33    0.00    0.00   81.78    1.57    5.43    0.35    0.00    0.00    0.00    0.00    0.02     0.00    0.00    0.00    0.00
   39   25.10    2.51    6.27    0.33    0.01    0.00   89.76    5.21    6.63    9.13    0.28    0.00    0.00    0.00    0.38     0.39    0.00    0.05    0.00
   40   26.40    3.68   11.22    0.33    0.40    0.00   93.68    4.87    5.90   15.24    0.00    0.00    0.00    0.00    0.43     0.39    0.00    0.05    0.00
   41    0.00    0.00    3.57    0.32    0.00    0.00   90.49    3.19    6.18    3.91    0.00    0.00    0.00    0.00    0.48     0.00    0.00    0.00    0.00
   42    0.00    0.00    1.22    0.32    0.00    0.00   87.71    2.78    6.18    1.55    0.00    0.00    0.00    0.00    0.52     0.00    0.00    0.00    0.00
   43    3.00    0.00    0.90    0.32    0.00    0.00   86.16    3.83    6.51    1.23    0.00    0.00    0.00    0.00    0.62     0.00    0.00    0.00    0.00
   44    2.00    0.00    0.56    0.31    0.00    0.00   84.03    3.75    5.89    0.88    0.00    0.00    0.00    0.00    0.69     0.00    0.00    0.00    0.00
   45   25.90    2.96    7.23    0.31    0.16    0.00   91.77    4.57    4.66   10.51    0.04    0.00    0.00    0.00    0.73     0.07    0.00    0.01    0.00
   46   17.30    0.90    8.89    0.31    0.35    0.00   94.01    4.10    4.10   10.11    0.00    0.00    0.00    0.00    0.56     0.01    0.00    0.00    0.00
   47    2.30    0.00    3.19    0.30    0.00    0.00   90.37    5.44    6.39    3.51    0.00    0.00    0.00    0.00    0.44     0.00    0.00    0.00    0.00
   48    4.10    0.00    1.91    0.30    0.00    0.00   90.04    3.19    3.33    2.23    0.00    0.00    0.00    0.00    0.39     0.00    0.00    0.00    0.00
   49   13.50    0.20    4.74    0.29    0.13    0.00   93.38    3.76    3.76    5.25    0.00    0.00    0.00    0.00    0.32     0.00    0.00    0.00    0.00
   50    2.00    0.00    1.81    0.28    0.00    0.00   90.49    4.48    4.69    2.10    0.00    0.00    0.00    0.00    0.19     0.00    0.00    0.00    0.00
   51   30.00    5.32   11.06    0.28    0.81    0.00   94.91    4.06    4.06   16.67    0.00    0.00    0.00    0.00    0.25     0.01    0.00    0.00    0.00
   52   51.60   19.03   20.21    0.28    2.14    0.00   96.65    4.09    4.09   39.53    0.01    0.00    0.00    0.00    0.16     0.03    0.00    0.00    0.00
   53    0.30    0.00    6.34    0.28    0.00    0.00   93.83    3.13    3.69    6.63    0.00    0.00    0.00    0.00    0.13     0.00    0.00    0.00    0.00
   54    0.80    0.00    2.16    0.28    0.00    0.00   90.78    3.85    4.65    2.45    0.00    0.00    0.00    0.00    0.07     0.00    0.00    0.00    0.00
   55   30.70    5.71   10.36    0.28    0.78    0.00   95.95    4.86    4.86   16.36    0.00    0.00    0.00    0.00    0.06     0.01    0.00    0.00    0.00
   56   30.50    6.25   14.88    0.28    1.46    0.00   96.69    4.92    5.05   21.43    0.00    0.00    0.00    0.00    0.07     0.01    0.00    0.00    0.00
   57   45.50   15.28   20.20    0.29    2.30    0.00   98.52    3.36    3.36   35.77    0.01    0.00    0.00    0.00    0.05     0.03    0.00    0.00    0.00
   58   35.80    9.51   20.42    0.29    2.28    0.00   97.12    4.77    4.86   30.24    0.00    0.00    0.00    0.00    0.03     0.01    0.00    0.00    0.00
   59    0.30    0.00    6.54    0.30    0.00    0.00   94.34    3.07    4.04    6.86    0.00    0.00    0.00    0.00    0.04     0.00    0.00    0.00    0.00
    2  351.60   71.34  165.48    8.61   10.83    0.00   94.34  100.06  144.21  245.81    0.36    0.00    0.01    0.01    6.65     0.97    0.00    0.12    0.00
   60    5.10    0.00    3.35    0.30    0.00    0.00   92.84    4.94    5.68    3.66    0.00    0.00    0.00    0.00    0.03     0.00    0.00    0.00    0.00
   61    6.60    0.00    2.66    0.30    0.00    0.00   92.89    4.25    4.70    2.98    0.00    0.00    0.00    0.00    0.03     0.00    0.00    0.00    0.00
   62    8.60    0.00    3.05    0.31    0.01    0.00   92.74    5.51    5.89    3.38    0.00    0.00    0.00    0.00    0.03     0.00    0.00    0.00    0.00
   63    3.60    0.00    1.69    0.31    0.00    0.00   90.82    4.49    4.95    2.02    0.00    0.00    0.00    0.00    0.06     0.00    0.00    0.00    0.00
   64    0.00    0.00    0.57    0.31    0.00    0.00   87.13    3.69    5.49    0.90    0.00    0.00    0.00    0.00    0.04     0.00    0.00    0.00    0.00
   65   47.20   14.36   12.71    0.31    0.82    0.00   96.00    4.80    4.80   27.39    0.01    0.00    0.00    0.00    0.06     0.01    0.00    0.00    0.00
   66    1.00    0.00    3.92    0.32    0.00    0.00   93.89    3.11    3.38    4.25    0.00    0.00    0.00    0.00    0.04     0.00    0.00    0.00    0.00
   67    7.60    0.00    3.20    0.32    0.00    0.00   93.80    4.87    5.03    3.54    0.00    0.00    0.00    0.00    0.03     0.00    0.00    0.00    0.00
   68    4.30    0.00    1.96    0.32    0.00    0.00   91.76    5.01    5.40    2.29    0.00    0.00    0.00    0.00    0.03     0.00    0.00    0.00    0.00
   69    2.00    0.00    0.90    0.31    0.00    0.00   89.41    3.99    4.36    1.23    0.00    0.00    0.00    0.00    0.06     0.00    0.00    0.00    0.00
   70    0.00    0.00    0.31    0.30    0.00    0.00   85.98    3.43    4.92    0.62    0.00    0.00    0.00    0.00    0.04     0.00    0.00    0.00    0.00
   71    0.50    0.00    0.11    0.30    0.00    0.00   83.23    3.24    4.55    0.42    0.00    0.00    0.00    0.00    0.04     0.00    0.00    0.00    0.00
   72   52.30   16.74   12.67    0.29    0.71    0.00   94.98    4.56    4.56   29.71    0.01    0.00    0.00    0.00    0.04     0.01    0.00    0.00    0.00
   73   30.00    5.87   15.21    0.29    1.36    0.00   96.75    4.36    4.36   21.39    0.00    0.00    0.00    0.00    0.04     0.00    0.00    0.00    0.00
   74    3.00    0.00    5.36    0.29    0.00    0.00   94.81    4.16    4.39    5.67    0.00    0.00    0.00    0.00    0.04     0.00    0.00    0.00    0.00
   75    1.00    0.00    1.82    0.29    0.00    0.00   90.22    5.58    7.33    2.13    0.00    0.00    0.00    0.00    0.04     0.00    0.00    0.00    0.00
   76    6.40    0.00    2.09    0.27    0.00    0.00   88.55    5.87    7.65    2.38    0.00    0.00    0.00    0.00    0.04     0.00    0.00    0.00    0.00
   77    0.30    0.00    0.70    0.26    0.00    0.00   85.00    3.85    6.13    0.98    0.00    0.00    0.00    0.00    0.04     0.00    0.00    0.00    0.00
   78    0.30    0.00    0.24    0.27    0.00    0.00   81.91    3.39    5.25    0.52    0.00    0.00    0.00    0.00    0.04     0.00    0.00    0.00    0.00
   79    4.80    0.00    1.10    0.26    0.00    0.00   80.72    4.46    5.40    1.38    0.00    0.00    0.00    0.00    0.04     0.00    0.00    0.00    0.00
   80    0.00    0.00    0.36    0.26    0.00    0.00   77.11    3.62    5.73    0.64    0.00    0.00    0.00    0.00    0.04     0.00    0.00    0.00    0.00
   81    0.00    0.00    0.13    0.25    0.00    0.00   73.65    3.46    5.74    0.39    0.00    0.00    0.00    0.00    0.04     0.00    0.00    0.00    0.00
   82   10.20    0.00    2.53    0.23    0.00    0.00   75.28    4.83    6.16    2.77    0.00    0.00    0.00    0.00    0.03     0.00    0.00    0.00    0.00
   83   19.10    0.58    5.71    0.22    0.00    0.00   81.36    5.13    5.81    6.52    0.00    0.00    0.00    0.00    0.04     0.00    0.00    0.00    0.00
   84    0.00    0.00    1.89    0.22    0.00    0.00   77.74    3.62    5.35    2.13    0.00    0.00    0.00    0.00    0.04     0.00    0.00    0.00    0.00
   85    0.00    0.00    0.65    0.21    0.00    0.00   73.69    4.05    6.28    0.87    0.00    0.00    0.00    0.00    0.04     0.00    0.00    0.00    0.00
   86    0.00    0.00    0.22    0.20    0.00    0.00   69.63    4.06    6.91    0.44    0.00    0.00    0.00    0.00    0.04     0.00    0.00    0.00    0.00
   87    8.60    0.00    2.12    0.20    0.00    0.00   70.68    4.49    5.23    2.33    0.00    0.00    0.00    0.00    0.03     0.00    0.00    0.00    0.00
   88    0.30    0.00    0.70    0.20    0.00    0.00   68.12    2.86    4.30    0.91    0.00    0.00    0.00    0.00    0.03     0.00    0.00    0.00    0.00
   89    0.00    0.00    0.24    0.20    0.00    0.00   64.46    3.66    5.68    0.45    0.00    0.00    0.00    0.00    0.03     0.00    0.00    0.00    0.00
   90    0.00    0.00    0.08    0.19    0.00    0.00   60.90    3.56    5.83    0.29    0.00    0.00    0.00    0.00    0.03     0.00    0.00    0.00    0.00
    3  222.80   37.55   88.26    8.32    2.90    0.00   60.90  130.90  167.23  134.59    0.01    0.00    0.00    0.00    1.20     0.03    0.00    0.00    0.00
   91   43.70    6.96   11.57    0.19    0.03    0.00   77.91    2.45    2.45   18.74    0.00    0.00    0.00    0.00    0.03     0.00    0.00    0.00    0.00
[...]
  345   10.90    0.05    5.81    0.10    0.20    0.00   96.73    3.32    3.70    5.97    0.00    0.00    0.01    0.00    0.00     0.00    0.00    0.00    0.00
  346    2.00    0.00    2.17    0.10    0.00    0.00   94.82    3.51    4.69    2.29    0.00    0.00    0.00    0.00    0.00     0.00    0.00    0.00    0.00
  347    0.50    0.00    0.74    0.11    0.00    0.00   92.51    2.81    5.22    0.86    0.00    0.00    0.00    0.00    0.00     0.00    0.00    0.00    0.00
  348    0.00    0.00    0.26    0.11    0.00    0.00   90.19    2.31    6.19    0.37    0.00    0.00    0.00    0.00    0.00     0.00    0.00    0.00    0.00
  349    0.30    0.00    0.09    0.11    0.00    0.00   88.65    1.84    5.21    0.21    0.00    0.00    0.00    0.00    0.00     0.00    0.00    0.00    0.00
  350   18.50    1.05    5.19    0.11    0.08    0.00   94.28    4.04    4.94    6.37    0.05    0.00    0.00    0.00    0.00     0.07    0.00    0.01    0.00
  351    1.30    0.00    1.75    0.11    0.00    0.00   92.38    3.09    4.45    1.87    0.00    0.00    0.00    0.00    0.00     0.00    0.00    0.00    0.00
  352   20.10    1.67    7.99    0.11    0.43    0.00   95.87    3.58    4.14    9.78    0.04    0.00    0.01    0.01    0.00     0.07    0.00    0.01    0.00
  353   58.20   24.04   20.58    0.12    2.46    0.00   98.04    3.06    3.27   44.74    0.94    0.00    0.05    0.05    0.00     1.60    0.00    0.20    0.00
  354    0.80    0.00    6.41    0.12    0.00    0.00   95.61    3.23    4.68    6.55    0.00    0.00    0.01    0.00    0.00     0.00    0.00    0.00    0.00
  355   87.60   47.54   23.14    0.13    3.12    0.00   99.45    2.43    2.46   70.80    3.89    0.00    0.05    0.07    0.00     5.23    0.00    0.64    0.00
  356   55.90   23.26   25.55    0.14    3.20    0.00   98.98    2.91    3.02   48.96    0.00    0.00    0.06    0.07    0.00     1.72    0.00    0.21    0.00
  357    0.00    0.00    8.11    0.14    0.00    0.00   95.95    3.03    5.44    8.27    0.00    0.00    0.02    0.00    0.00     0.00    0.00    0.00    0.00
  358    0.00    0.00    2.77    0.15    0.00    0.00   93.05    2.90    7.04    2.93    0.00    0.00    0.01    0.00    0.00     0.00    0.00    0.00    0.00
  359    0.00    0.00    0.95    0.16    0.00    0.00   90.80    2.25    6.83    1.12    0.00    0.00    0.00    0.00    0.00     0.00    0.00    0.00    0.00
  360   23.90    2.84    7.38    0.17    0.25    0.00   97.75    3.41    3.84   10.40    0.14    0.00    0.00    0.00    0.00     0.18    0.00    0.02    0.00
  361    4.60    0.00    3.41    0.17    0.02    0.00   97.95    2.81    2.89    3.59    0.00    0.00    0.00    0.00    0.00     0.00    0.00    0.00    0.00
  362   14.70    0.59    7.71    0.18    0.68    0.00   98.21    3.45    3.89    8.49    0.02    0.00    0.01    0.02    0.00     0.03    0.00    0.00    0.00
  363    8.40    0.00    5.59    0.19    0.25    0.00   98.05    3.66    4.23    5.79    0.00    0.00    0.01    0.01    0.00     0.00    0.00    0.00    0.00
  364    0.30    0.00    1.84    0.19    0.00    0.00   95.14    3.21    5.72    2.04    0.00    0.00    0.00    0.00    0.00     0.00    0.00    0.00    0.00
  365    7.40    0.00    2.37    0.20    0.00    0.00   96.89    3.03    3.49    2.58    0.00    0.00    0.00    0.00    0.00     0.00    0.00    0.00    0.00
   12  450.40  131.78  199.56    3.78   14.40    0.00   96.89   97.90  147.44  335.41    6.50    0.00    0.34    0.30    0.00    11.33    0.00    1.39    0.00

 2014 3844.30 1063.09 1636.90   63.87  100.52    0.00   96.89 1046.78 1709.48 2768.45   19.28    0.04    2.06    1.16    8.29    49.67    0.05    6.08    0.00
  366   39.90   11.71   15.23    0.20    1.97    0.00  100.09    1.79    1.81   27.15    0.40    0.00    0.03    0.04    0.00     0.55    0.00    0.07    0.00
    1   39.90   11.71   15.23    0.20    1.97    0.00  100.09    1.79    1.81   27.15    0.40    0.00    0.03    0.04    0.00     0.55    0.00    0.07    0.00

 2014   39.90   11.71   15.23    0.20    1.97    0.00  100.09    1.79    1.81   27.15    0.40    0.00    0.03    0.04    0.00     0.55    0.00    0.07    0.00
1
    SWAT Dec 23 2016    VER 2016/Rev 664                                            

    General Input/Output section (file.cio):                                        
    2/12/2020 14:38:04 QSWAT Workflow v1.5.2                                        
                                                                                    
    FINAL VALUES

1
    SWAT Dec 23 2016    VER 2016/Rev 664                                            

    General Input/Output section (file.cio):                                        
    2/12/2020 14:38:04 QSWAT Workflow v1.5.2                                        
                                                                                    
                                            Average Plant Values (kg/ha)

  HRU       1 SUB   1 FRSE  Yld =  3961.8 BIOM =   5659.7
  HRU       2 SUB   1 FRSE  Yld =  5064.9 BIOM =   7235.6
  HRU       3 SUB   1 FRSE  Yld =  2611.3 BIOM =   3730.4
  HRU       4 SUB   1 FRSE  Yld =  2603.2 BIOM =   3718.9
  HRU       5 SUB   1 FRSE  Yld =  5103.3 BIOM =   7290.4
  HRU       6 SUB   2 FRSE  Yld =  5775.1 BIOM =   8250.2
  HRU       7 SUB   2 FRSE  Yld =  5439.3 BIOM =   7770.4
  HRU       8 SUB   3 FRSE  Yld =  3956.8 BIOM =   5652.6
  HRU       9 SUB   3 FRSE  Yld =  4382.9 BIOM =   6261.3
  HRU      10 SUB   3 FRSE  Yld =  5053.3 BIOM =   7219.1
  HRU      11 SUB   4 FRSE  Yld =  5369.5 BIOM =   7670.8
  HRU      12 SUB   5 FRSE  Yld =  3962.4 BIOM =   5660.5
  HRU      13 SUB   5 FRSE  Yld =  4389.1 BIOM =   6270.2
  HRU      14 SUB   5 FRSE  Yld =  2606.5 BIOM =   3723.6
  HRU      15 SUB   5 FRSE  Yld =  4306.5 BIOM =   6152.2
  HRU      16 SUB   6 FRSE  Yld =  2611.8 BIOM =   3731.1
  HRU      17 SUB   6 FRSE  Yld =  2603.4 BIOM =   3719.2
  HRU      18 SUB   6 FRSE  Yld =  4700.9 BIOM =   6715.6
  HRU      19 SUB   7 FRSE  Yld =  4654.9 BIOM =   6649.9
  HRU      20 SUB   7 FRSE  Yld =  2611.8 BIOM =   3731.1
  HRU      21 SUB   7 FRSE  Yld =  2606.6 BIOM =   3723.7
  HRU      22 SUB   7 FRSE  Yld =  4848.1 BIOM =   6925.9
  HRU      23 SUB   8 FRSE  Yld =  5293.9 BIOM =   7562.8
  HRU      24 SUB   9 FRSE  Yld =  2610.4 BIOM =   3729.2
  HRU      25 SUB   9 FRSE  Yld =  2603.9 BIOM =   3719.9
  HRU      26 SUB   9 FRSE  Yld =  5428.0 BIOM =   7754.2
  HRU      27 SUB  10 SWCH  Yld = 25653.3 BIOM =  43090.1
  HRU      28 SUB  10 SWCH  Yld = 25366.6 BIOM =  42592.4
  HRU      29 SUB  10 FRSE  Yld =  4231.6 BIOM =   6045.2
  HRU      30 SUB  10 FRSE  Yld =  4243.2 BIOM =   6061.7
  HRU      31 SUB  10 FRSE  Yld =  5003.5 BIOM =   7147.9
  HRU      32 SUB  10 FRSE  Yld =  5383.1 BIOM =   7690.2
  HRU      33 SUB  11 SWCH  Yld = 25651.6 BIOM =  43090.4
  HRU      34 SUB  11 FRSE  Yld =  5780.8 BIOM =   8258.3
  HRU      35 SUB  11 FRSE  Yld =  5441.1 BIOM =   7773.1

    HRU STATISTICS

                AVE ANNUAL VALUES

   HRU  SUB  SOIL       AREAkm2    CN     AWCmm   USLE_LS  IRRmm  AUTONkh AUTOPkh  MIXEF PRECmm SURQGENmm   GWQmm    ETmm   SEDth  NO3kgh  ORGNkgh BIOMth   YLDth  SURQmm
      1   1   OLOAVA     .103E-03   55.00  149.80    0.33    0.00    0.00    0.00    0.20 3485.48  511.26 1677.37 1141.77    0.40    0.11    9.16    8.85    6.20  511.16
      2   1   OLOAVA     .457E-01   55.00  149.80    6.05    0.00    0.00    0.00    0.20 3485.48  479.72 1863.46 1098.06   13.77    3.10   53.44   11.12    7.79  479.72
      3   1   FAGASA     .205E-03   70.00   97.20    0.07    0.00    0.00    0.00    0.20 3485.48  999.16 1309.64 1042.93    0.04    0.02    0.99    5.87    4.11  995.14
      4   1   FAGASA     .821E-03   70.00   97.20    0.31    0.00    0.00    0.00    0.20 3485.48  998.85 1311.04 1042.67    0.82    0.05   11.47    5.85    4.09  998.31
      5   1   FAGASA     .111E+00   70.00   97.20    5.92    0.00    0.00    0.00    0.20 3485.48  921.46 1542.81  979.21   16.64    2.13   45.93   11.38    7.97  921.46
      6   2   AUA        .585E-02   55.00  165.80    3.67    0.00    0.00    0.00    0.20 3485.48  493.91 1874.36 1048.81    2.01    2.03   17.00   12.72    8.90  493.91
      7   2   FAGASA     .135E+00   70.00   97.20   13.49    0.00    0.00    0.00    0.20 3485.48  862.56 1650.44  953.88   34.81    2.26   51.77   12.16    8.51  862.56
      8   3   OLOAVA     .205E-03   55.00  149.80    0.42    0.00    0.00    0.00    0.20 3485.48  511.16 1678.09 1141.72    0.59    0.13   12.74    8.84    6.19  511.08
      9   3   OLOAVA     .627E-01   55.00  149.80    2.56    0.00    0.00    0.00    0.20 3485.48  506.25 1761.01 1131.29    7.23    2.11   45.98    9.75    6.82  506.25
     10   3   FAGASA     .148E+00   70.00   97.20    5.65    0.00    0.00    0.00    0.20 3485.48  924.65 1536.40  981.44   16.66    2.13   46.04   11.27    7.89  924.65
     11   4   FAGASA     .185E+00   70.00   97.20    8.67    0.00    0.00    0.00    0.20 3485.48  881.25 1618.91  960.11   23.90    2.10   48.66   11.95    8.36  881.25
     12   5   OLOAVA     .103E-03   55.00  149.80    0.31    0.00    0.00    0.00    0.20 3485.48  511.31 1677.18 1141.80    0.37    0.11    8.67    8.85    6.20  511.21
     13   5   OLOAVA     .266E-01   55.00  149.80    2.59    0.00    0.00    0.00    0.20 3485.48  506.22 1761.34 1131.23    6.57    2.11   44.86    9.76    6.83  506.22
     14   5   FAGASA     .205E-03   70.00   97.20    0.33    0.00    0.00    0.00    0.20 3485.48  998.66 1311.79 1042.59    0.77    0.06   10.38    5.86    4.10  998.37
     15   5   FAGASA     .178E+00   70.00   97.20    3.29    0.00    0.00    0.00    0.20 3485.48  949.01 1483.18 1002.86   11.81    2.07   44.64    9.69    6.78  949.01
     16   6   FAGASA     .103E-03   70.00   97.20    0.07    0.00    0.00    0.00    0.20 3485.48  999.17 1309.59 1042.95    0.02    0.02    0.43    5.87    4.11  995.15
     17   6   FAGASA     .513E-03   70.00   97.20    0.40    0.00    0.00    0.00    0.20 3485.48  998.62 1312.11 1042.53    1.08    0.07   13.93    5.85    4.09  998.36
     18   6   FAGASA     .179E+00   70.00   97.20    4.30    0.00    0.00    0.00    0.20 3485.48  939.35 1505.87  993.09   14.05    2.12   45.31   10.53    7.37  939.35
     19   7   OLOAVA     .985E-02   55.00  149.80    3.88    0.00    0.00    0.00    0.20 3485.48  502.86 1792.12 1124.77    8.22    2.62   46.79   10.31    7.22  502.86
     20   7   FAGASA     .103E-03   70.00   97.20    0.07    0.00    0.00    0.00    0.20 3485.48  999.17 1309.60 1042.95    0.02    0.02    0.43    5.87    4.11  995.15
     21   7   FAGASA     .103E-03   70.00   97.20    0.40    0.00    0.00    0.00    0.20 3485.48  998.60 1312.11 1042.55    0.85    0.07   11.23    5.86    4.10  998.35
     22   7   FAGASA     .190E+00   70.00   97.20    4.78    0.00    0.00    0.00    0.20 3485.48  934.58 1516.10  988.94   15.21    2.13   45.71   10.84    7.59  934.58
     23   8   FAGASA     .583E-01   70.00   97.20    7.49    0.00    0.00    0.00    0.20 3485.48  900.37 1580.72  967.99   18.49    2.10   46.45   11.79    8.25  900.37
     24   9   FAGASA     .410E-03   70.00   97.20    0.08    0.00    0.00    0.00    0.20 3485.48  999.17 1309.66 1042.95    0.13    0.02    2.47    5.87    4.11  997.33
     25   9   FAGASA     .616E-03   70.00   97.20    0.31    0.00    0.00    0.00    0.20 3485.48  998.88 1310.93 1042.72    0.79    0.05   11.07    5.85    4.10  998.35
     26   9   FAGASA     .387E+00   70.00   97.20    9.47    0.00    0.00    0.00    0.20 3485.48  863.92 1646.99  954.18   27.81    2.23   49.93   12.12    8.49  863.92
     27  10   AUA        .103E-03   59.00  165.80    0.15    0.00  133.94    0.00    0.20 3485.48  615.27 1598.97 1109.29    0.00    0.25    0.00   60.37   39.18  614.83
     28  10   AUA        .103E-03   59.00  165.80    3.27    0.00  131.59    0.00    0.20 3485.48  590.21 1695.27 1107.68    0.04    7.98    0.42   59.52   38.66  590.21
     29  10   AUA        .205E-03   55.00  165.80    0.07    0.00    0.00    0.00    0.20 3485.48  515.29 1725.70 1084.61    0.00    0.01    0.03    9.41    6.58  513.91
     30  10   AUA        .205E-03   55.00  165.80    0.38    0.00    0.00    0.00    0.20 3485.48  514.90 1727.65 1084.31    0.16    0.04    2.12    9.43    6.60  514.81
     31  10   AUA        .872E-02   55.00  165.80    2.82    0.00    0.00    0.00    0.20 3485.48  506.85 1800.06 1068.76    1.89    1.23   16.88   11.10    7.77  506.85
     32  10   FAGASA     .168E+00   70.00   97.20    9.04    0.00    0.00    0.00    0.20 3485.48  873.01 1632.29  957.62   24.38    2.16   48.81   11.99    8.39  873.01
     33  11   AUA        .103E-03   59.00  165.80    1.28    0.00  133.71    0.00    0.20 3485.48  612.80 1606.92 1109.14    0.01    1.06    0.08   60.36   39.18  612.79
     34  11   AUA        .431E-02   55.00  165.80    3.71    0.00    0.00    0.00    0.20 3485.48  493.76 1875.01 1048.63    1.95    2.03   16.71   12.73    8.91  493.76
     35  11   FAGASA     .105E-01   70.00   97.20   16.40    0.00    0.00    0.00    0.20 3485.48  862.54 1651.02  953.90   31.21    2.27   50.90   12.16    8.51  862.54



                AVE MONTHLY BASIN VALUES
                   SNOW                      WATER               SED
  MON     RAIN     FALL   SURF Q    LAT Q    YIELD       ET    YIELD      PET
          (MM)     (MM)     (MM)     (MM)     (MM)     (MM)   (T/HA)     (MM)
    1   573.80     0.00   164.68   281.53   455.36    92.43    10.36   128.93
    2   248.15     0.00    55.84   125.44   192.19    84.47     1.45   125.53
    3   158.30     0.00    18.77    61.75    89.21   107.94     0.01   141.33
    4   352.75     0.00    50.23   161.20   214.92    89.36     0.01   122.56
    5   177.95     0.00    20.96    89.03   114.21    77.24     0.01   137.48
    6   251.80     0.00    66.64   104.74   175.50    72.84     0.11   113.32
    7   488.95     0.00   229.08   158.19   391.13    70.63     0.73   107.26
    8   292.00     0.00    82.71   138.62   227.58    73.55     0.51   123.63
    9   138.15     0.00    13.52    58.18    77.10    70.06     0.11   144.02
   10   162.50     0.00    31.03    62.49    96.38    64.68     0.51   170.05
   11   256.55     0.00    39.85   120.68   162.42    83.17     0.85   142.36
   12   380.10     0.00    91.29   173.87   268.65    97.87     5.34   146.63

     AVE ANNUAL BASIN STRESS DAYS
               WATER STRESS DAYS =     3.06
               TEMPERATURE STRESS DAYS =     0.09
               NITROGEN STRESS DAYS =     6.82
               PHOSPHORUS STRESS DAYS =     0.00
               AERATION STRESS DAYS =     0.00
1
    SWAT Dec 23 2016    VER 2016/Rev 664                                            

    General Input/Output section (file.cio):                                        
    2/12/2020 14:38:04 QSWAT Workflow v1.5.2                                        
                                                                                    
         AVE ANNUAL BASIN VALUES

              PRECIP =   3485.5 MM
              SNOW FALL =    0.00 MM
              SNOW MELT =     0.00 MM
              SUBLIMATION =     0.00 MM
              SURFACE RUNOFF Q =   866.08 MM
              LATERAL SOIL Q = 1538.17 MM
              TILE Q =     0.00 MM
              GROUNDWATER (SHAL AQ) Q =    59.85 MM
              GROUNDWATER (DEEP AQ) Q =     4.51 MM
              REVAP (SHAL AQ => SOIL/PLANTS) =   32.06 MM
              DEEP AQ RECHARGE =     4.36 MM
              TOTAL AQ RECHARGE =   87.14 MM
              TOTAL WATER YLD =  2468.61 MM
              PERCOLATION OUT OF SOIL =   89.12 MM
              ET =    984.4 MM
              PET =   1603.0MM
              TRANSMISSION LOSSES =     0.00 MM
              SEPTIC INFLOW =       0.00 MM
              TOTAL SEDIMENT LOADING =     20.13 T/HA
              TILE FROM IMPOUNDED WATER =     0.000 (MM)
              EVAPORATION FROM IMPOUNDED WATER =     0.000 (MM)
              SEEPAGE INTO SOIL FROM IMPOUNDED WATER =    0.000 (MM)
              OVERFLOW FROM IMPOUNDED WATER =    0.000 (MM)
1
    SWAT Dec 23 2016    VER 2016/Rev 664                                            

    General Input/Output section (file.cio):                                        
    2/12/2020 14:38:04 QSWAT Workflow v1.5.2                                        
                                                                                    
              AVE ANNUAL BASIN VALUES


              NUTRIENTS
                   ORGANIC N =    47.322 (KG/HA)
                   ORGANIC P =     5.792 (KG/HA)
                   NO3 YIELD (SQ) =     0.040 (KG/HA)
                   NO3 YIELD (LAT) =    2.128 (KG/HA)
                   NO3 YIELD (TILE) =    0.000 (KG/HA)
                   SOLP YIELD (TILE) =    0.000(KG/HA)
                   SOLP YIELD (SURF INLET RISER) =    0.000 (KG/HA)
                   SOL P YIELD =    0.041 (KG/HA)
                   NO3 LEACHED =     1.372 (KG/HA)
                   P LEACHED =     0.033 (KG/HA)
                   N UPTAKE =     7.905 (KG/HA)
                   P UPTAKE =    1.693 (KG/HA)
                   NO3 YIELD (GWQ) =     0.007 (KG/HA)
                   ACTIVE TO SOLUTION P FLOW =         0.455 (KG/HA)
                   ACTIVE TO STABLE P FLOW =         0.872 (KG/HA)
                   N FERTILIZER APPLIED =     0.021 (KG/HA)
                   P FERTILIZER APPLIED =     0.000 (KG/HA)
                   N FIXATION =     0.000 (KG/HA)
                   DENITRIFICATION =     0.000 (KG/HA)
                   HUMUS MIN ON ACTIVE ORG N =    13.761 (KG/HA)
                   ACTIVE TO STABLE ORG N =    -7.253 (KG/HA)
                   HUMUS MIN ON ACTIVE ORG P =    2.355 (KG/HA)
                   MIN FROM FRESH ORG N =    1.464 (KG/HA)
                   MIN FROM FRESH ORG P =    0.284 (KG/HA)
                   NO3 IN RAINFALL =     0.000 (KG/HA)
                   INITIAL NO3 IN SOIL =      36.820 (KG/HA)
                   FINAL NO3 IN SOIL =         5.419 (KG/HA)
                   INITIAL ORG N IN SOIL =   11075.071 (KG/HA)
                   FINAL ORG N IN SOIL =     10540.334 (KG/HA)
                   INITIAL MIN P IN SOIL =    1798.814 (KG/HA)
                   FINAL MIN P IN SOIL =      1755.816 (KG/HA)
                   INITIAL ORG P IN SOIL =    1356.696 (KG/HA)
                   FINAL ORG P IN SOIL =    1287.719 (KG/HA)
                   NO3 IN FERT =     0.021 (KG/HA)
                   AMMONIA IN FERT =     0.000 (KG/HA)
                   ORG N IN FERT =     0.000 (KG/HA)
                   MINERAL P IN FERT =     0.000 (KG/HA)
                   ORG P IN FERT =     0.000 (KG/HA)
                   N REMOVED IN YIELD =     6.168 (KG/HA)
                   P REMOVED IN YIELD =     1.355 (KG/HA)
                   AMMONIA VOLATILIZATION =     0.000 (KG/HA)
                   AMMONIA NITRIFICATION =      0.000 (KG/HA)
                   NO3 EVAP-LAYER 2 TO 1 =    3.394

                   DIE-GRO P Q =           0.0 (No/M2)
                   DIE-GRO LP Q =           0.0 (No/M2)
                   DIE-GRO P SED =          0.0 (No/M2)
                   DIE-GRO LP SED =          0.0 (No/M2)
                   BACT P RUNOFF =          0.0 (No/M2)
                   BACT LP RUNOFF =          0.0 (No/M2)
                   BACT P SEDIMENT =          0.0 (No/M2)
                   BACT LP SEDIMENT =          0.0 (No/M2)
                   BACT P INCORP =          0.0 (No/M2)
                   BACT LP INCORP =          0.0 (No/M2)

                   NITRATE SEPTIC =         0.00 (kg/ha)
                   AMMONIA SEPTIC =         0.00 (kg/ha)
                   ORG N SEPTIC =         0.00 (kg/ha)
                   FRESH ORGN SEPTIC =         0.00 (kg/ha)
                   ORG P SEPTIC =         0.00 (kg/ha)
                   FRESH ORGP SEPTIC =         0.00 (kg/ha)
                   SOL P SEPTIC =         0.00 (kg/ha)
                   BOD SEPTIC =         0.00 (kg/ha)
