1
    SWAT Dec 23 2016    VER 2016/Rev 664                                                                 0/ 0/   0      0: 0: 0

    General Input/Output section (file.cio):                                        
    2/11/2020 17:04:58 QSWAT Workflow v1.5.2                                        
                                                                                    
         Number of years in run:   12
         Area of watershed:        0.485 km2
         Random number generator cycles: 0, use default numbers

         Initial random number seed: wet/dry day prob        748932582
         Initial random number seed: radiation              1948832765
         Initial random number seed: precipitation           857034417
         Initial random number seed: 0.5 hr rainfall          67377721
         Initial random number seed: wind speed              366304404
         Initial random number seed: irrigation             1094585182
         Initial random number seed: relative humidity      1767585417
         Initial random number seed: max temperature         608439319
         Initial random number seed: min temperature         592757081

         Precipitation data used in run:
          Multiple gages read for watershed
             Daily rainfall data used

         Temperature data used in run:
          Multiple gages read for watershed

         PET method used: Penman-Monteith

         Rainfall/Runoff/Routing Option:
          Daily rainfall data
          Runoff estimated with curve number method
          Daily stream routing
           Variable Storage routing method
           Channel dimensions remain constant
           Subbasin algae/CBOD loadings not modeled
           In-stream nutrient transformations modeled using QUAL2E equations

         Subbasin Input Summary:
          Sub Latitude  Elev(m) #HRUs Ponds Elevbnds Wetlnd
            1   -14.29   243.32     8                   
            2   -14.29   225.48     8                   
            3   -14.29   256.73     6                   
            4   -14.29   299.04     3                   
            5   -14.29   105.75     8                   
            6   -14.29    68.40     5                   
            7   -14.29   108.85    12                   

         HRU Input Summary Table 1:
          Sub   HRU   Area(ha) Slope SlpLgth(m) Ovrlnd_N CondII_CN TimeConc(hr) ESCO EPCO
            1      1       0.38 0.285       9.15    0.100     55.00        0.079 0.95 1.00
            1      2       6.47 0.552       9.15    0.100     70.00        0.094 0.95 1.00
            1      3       0.05 0.249      15.24    0.100     66.00        0.109 0.95 1.00
            1      4       0.17 0.377       9.15    0.100     77.00        0.072 0.95 1.00
            1      5       0.01 0.307       9.15    0.100     77.00        0.075 0.95 1.00
            1      6       0.14 0.320       9.15    0.100     77.00        0.075 0.95 1.00
            1      7       0.05 0.271       9.15    0.100     77.00        0.078 0.95 1.00
            1      8       0.18 0.321       9.15    0.100     77.00        0.076 0.95 1.00
            2      9       0.41 0.307       9.15    0.100     55.00        0.078 0.95 1.00
            2     10       6.60 0.685       9.15    0.100     70.00        0.089 0.95 1.00
            2     11       0.05 0.307       9.15    0.100     66.00        0.076 0.95 1.00
            2     12       0.03 0.290       9.15    0.100     77.00        0.077 0.95 1.00
            2     13       0.03 0.311       9.15    0.100     77.00        0.075 0.95 1.00
            2     14       0.02 0.258       9.15    0.100     77.00        0.079 0.95 1.00
            2     15       0.02 0.300       9.15    0.100     77.00        0.076 0.95 1.00
            2     16       0.06 0.273       9.15    0.100     77.00        0.078 0.95 1.00
            3     17       0.14 0.462       9.15    0.100     59.00        0.067 0.95 1.00
            3     18       0.02 0.000     121.95    0.100     55.00        3.952 0.95 1.00
            3     19       0.01 0.026      91.46    0.100     55.00        0.627 0.95 1.00
            3     20       1.81 0.461       9.15    0.100     55.00        0.071 0.95 1.00
            3     21      10.10 0.901       9.15    0.100     70.00        0.075 0.95 1.00
            3     22       0.12 0.305       9.15    0.100     66.00        0.076 0.95 1.00
            4     23       0.77 0.348       9.15    0.100     55.00        0.075 0.95 1.00
            4     24      10.72 0.829       9.15    0.100     70.00        0.084 0.95 1.00
            4     25       0.01 0.190      18.29    0.100     70.00        0.132 0.95 1.00
            5     26       0.46 0.508       9.15    0.100     59.00        0.070 0.95 1.00
            5     27       0.10 0.510       9.15    0.100     72.00        0.066 0.95 1.00
            5     28       0.93 0.317       9.15    0.100     55.00        0.084 0.95 1.00
            5     29       0.21 0.673       9.15    0.100     70.00        0.062 0.95 1.00
            5     30       0.15 0.517       9.15    0.100     66.00        0.066 0.95 1.00
            5     31       0.04 0.464       9.15    0.100     77.00        0.067 0.95 1.00
            5     32       0.11 0.256       9.15    0.100     77.00        0.081 0.95 1.00
            5     33       0.07 0.232      15.24    0.100     77.00        0.112 0.95 1.00
            6     34       0.24 0.318       9.15    0.100     55.00        0.083 0.95 1.00
            6     35       0.01 0.298       9.15    0.100     77.00        0.076 0.95 1.00
            6     36       0.07 0.252       9.15    0.100     77.00        0.083 0.95 1.00
            6     37       0.01 0.306       9.15    0.100     77.00        0.076 0.95 1.00
            6     38       0.03 0.257       9.15    0.100     77.00        0.081 0.95 1.00
            7     39       0.03 0.207      15.24    0.100     59.00        0.115 0.95 1.00
            7     40       0.02 0.354       9.15    0.100     72.00        0.072 0.95 1.00
            7     41       0.32 0.282       9.15    0.100     72.00        0.079 0.95 1.00
            7     42       0.12 0.129      24.39    0.100     72.00        0.176 0.95 1.00
            7     43       0.16 0.424       9.15    0.100     72.00        0.069 0.95 1.00
            7     44       0.04 0.150      24.39    0.100     83.00        0.168 0.95 1.00
            7     45       0.05 0.417       9.15    0.100     77.00        0.069 0.95 1.00
            7     46       1.69 0.347       9.15    0.100     55.00        0.082 0.95 1.00
            7     47       4.87 0.602       9.15    0.100     70.00        0.086 0.95 1.00
            7     48       0.01 0.186      18.29    0.100     77.00        0.132 0.95 1.00
            7     49       0.28 0.265       9.15    0.100     77.00        0.081 0.95 1.00
            7     50       0.06 0.169      18.29    0.100     77.00        0.137 0.95 1.00

         HRU CN Input Summary Table:
          Sub   HRU   Area(ha)  LULC      Soil    CN1    CN2    CN3  Wilting Point (mm H2O)  Field Capacity (mm H2O)  Saturation (mm H2O)
            1      1       0.38  FRSE  AUA        35.3   55.0   74.5                   211.7                    165.8                763.4
            1      2       6.47  FRSE  FAGASA     51.2   70.0   85.7                   132.2                     97.2                365.5
            1      3       0.05  FRSD  AUA        46.8   66.0   83.0                   211.7                    165.8                763.4
            1      4       0.17  FRSD  FAGASA     59.3   77.0   89.9                   132.2                     97.2                365.5
            1      5       0.01  FRSD  AUA        59.3   77.0   89.9                   211.7                    165.8                763.4
            1      6       0.14  FRSD  FAGASA     59.3   77.0   89.9                   132.2                     97.2                365.5
            1      7       0.05  FRSD  AUA        59.3   77.0   89.9                   211.7                    165.8                763.4
            1      8       0.18  FRSD  FAGASA     59.3   77.0   89.9                   132.2                     97.2                365.5
            2      9       0.41  FRSE  AUA        35.3   55.0   74.5                   211.7                    165.8                763.4
            2     10       6.60  FRSE  FAGASA     51.2   70.0   85.7                   132.2                     97.2                365.5
            2     11       0.05  FRSD  AUA        46.8   66.0   83.0                   211.7                    165.8                763.4
            2     12       0.03  FRSD  FAGASA     59.3   77.0   89.9                   132.2                     97.2                365.5
            2     13       0.03  FRSD  AUA        59.3   77.0   89.9                   211.7                    165.8                763.4
            2     14       0.02  FRSD  FAGASA     59.3   77.0   89.9                   132.2                     97.2                365.5
            2     15       0.02  FRSD  AUA        59.3   77.0   89.9                   211.7                    165.8                763.4
            2     16       0.06  FRSD  FAGASA     59.3   77.0   89.9                   132.2                     97.2                365.5
            3     17       0.14  SWCH  AUA        39.4   59.0   77.7                   211.7                    165.8                763.4
            3     18       0.02  FRSE  AUA        35.3   55.0   74.5                   211.7                    165.8                763.4
            3     19       0.01  FRSE  AUA        35.3   55.0   74.5                   211.7                    165.8                763.4
            3     20       1.81  FRSE  AUA        35.3   55.0   74.5                   211.7                    165.8                763.4
            3     21      10.10  FRSE  FAGASA     51.2   70.0   85.7                   132.2                     97.2                365.5
            3     22       0.12  FRSD  AUA        46.8   66.0   83.0                   211.7                    165.8                763.4
            4     23       0.77  FRSE  AUA        35.3   55.0   74.5                   211.7                    165.8                763.4
            4     24      10.72  FRSE  FAGASA     51.2   70.0   85.7                   132.2                     97.2                365.5
            4     25       0.01  FRSE  AUA        51.2   70.0   85.7                   211.7                    165.8                763.4
            5     26       0.46  SWCH  AUA        39.4   59.0   77.7                   211.7                    165.8                763.4
            5     27       0.10  SWCH  FAGASA     53.4   72.0   86.9                   132.2                     97.2                365.5
            5     28       0.93  FRSE  AUA        35.3   55.0   74.5                   211.7                    165.8                763.4
            5     29       0.21  FRSE  FAGASA     51.2   70.0   85.7                   132.2                     97.2                365.5
            5     30       0.15  FRSD  AUA        46.8   66.0   83.0                   211.7                    165.8                763.4
            5     31       0.04  FRSD  FAGASA     59.3   77.0   89.9                   132.2                     97.2                365.5
            5     32       0.11  FRSD  AUA        59.3   77.0   89.9                   211.7                    165.8                763.4
            5     33       0.07  FRSD  AUA        59.3   77.0   89.9                   211.7                    165.8                763.4
            6     34       0.24  FRSE  AUA        35.3   55.0   74.5                   211.7                    165.8                763.4
            6     35       0.01  FRSD  FAGASA     59.3   77.0   89.9                   132.2                     97.2                365.5
            6     36       0.07  FRSD  AUA        59.3   77.0   89.9                   211.7                    165.8                763.4
            6     37       0.01  FRSD  FAGASA     59.3   77.0   89.9                   132.2                     97.2                365.5
            6     38       0.03  FRSD  AUA        59.3   77.0   89.9                   211.7                    165.8                763.4
            7     39       0.03  SWCH  AUA        39.4   59.0   77.7                   211.7                    165.8                763.4
            7     40       0.02  SWCH  FAGASA     53.4   72.0   86.9                   132.2                     97.2                365.5
            7     41       0.32  SWCH  AUA        53.4   72.0   86.9                   211.7                    165.8                763.4
            7     42       0.12  SWCH  URBAN LA   53.4   72.0   86.9                     0.8                      1.5                 75.7
            7     43       0.16  SWCH  FAGASA     53.4   72.0   86.9                   132.2                     97.2                365.5
            7     44       0.04  FRSD  URBAN LA   67.0   83.0   93.1                     0.8                      1.5                 75.7
            7     45       0.05  FRSD  FAGASA     59.3   77.0   89.9                   132.2                     97.2                365.5
            7     46       1.69  FRSE  AUA        35.3   55.0   74.5                   211.7                    165.8                763.4
            7     47       4.87  FRSE  FAGASA     51.2   70.0   85.7                   132.2                     97.2                365.5
            7     48       0.01  FRSE  URBAN LA   59.3   77.0   89.9                     0.8                      1.5                 75.7
            7     49       0.28  FRSE  AUA        59.3   77.0   89.9                   211.7                    165.8                763.4
            7     50       0.06  FRSE  URBAN LA   59.3   77.0   89.9                     0.8                      1.5                 75.7

         HRU Input Summary Table 2:
          Sub   HRU   Area(ha)         SoilName Hydgrp MaxRtDpth(mm) Albedo USLE_K USLE_P USLE_LS ProfileAWC(mm) IniSoilH2O(mm)
            1      1       0.38 AUA                B          1520.00   0.16   0.17   1.00    3.67    165.800        121.506
            1      2       6.47 FAGASA             C           840.00   0.16   0.10   1.00   10.33     97.200         71.232
            1      3       0.05 AUA                B          1520.00   0.16   0.17   1.00    3.99    165.800        121.506
            1      4       0.17 FAGASA             C           840.00   0.16   0.10   1.00    5.78     97.200         71.232
            1      5       0.01 AUA                B          1520.00   0.16   0.17   1.00    4.14    165.800        121.506
            1      6       0.14 FAGASA             C           840.00   0.16   0.10   1.00    4.43     97.200         71.232
            1      7       0.05 AUA                B          1520.00   0.16   0.17   1.00    3.37    165.800        121.506
            1      8       0.18 FAGASA             C           840.00   0.16   0.10   1.00    4.45     97.200         71.232
            2      9       0.41 AUA                B          1520.00   0.16   0.17   1.00    4.14    165.800        121.506
            2     10       6.60 FAGASA             C           840.00   0.16   0.10   1.00   13.85     97.200         71.232
            2     11       0.05 AUA                B          1520.00   0.16   0.17   1.00    4.14    165.800        121.506
            2     12       0.03 FAGASA             C           840.00   0.16   0.10   1.00    3.77     97.200         71.232
            2     13       0.03 AUA                B          1520.00   0.16   0.17   1.00    4.23    165.800        121.506
            2     14       0.02 FAGASA             C           840.00   0.16   0.10   1.00    3.11     97.200         71.232
            2     15       0.02 AUA                B          1520.00   0.16   0.17   1.00    3.99    165.800        121.506
            2     16       0.06 FAGASA             C           840.00   0.16   0.10   1.00    3.42     97.200         71.232
            3     17       0.14 AUA                B          1520.00   0.16   0.17   1.00    7.94    165.800        121.506
            3     18       0.02 AUA                B          1520.00   0.16   0.17   1.00    0.07    165.800        121.506
            3     19       0.01 AUA                B          1520.00   0.16   0.17   1.00    0.38    165.800        121.506
            3     20       1.81 AUA                B          1520.00   0.16   0.17   1.00    7.91    165.800        121.506
            3     21      10.10 FAGASA             C           840.00   0.16   0.10   1.00   19.08     97.200         71.232
            3     22       0.12 AUA                B          1520.00   0.16   0.17   1.00    4.10    165.800        121.506
            4     23       0.77 AUA                B          1520.00   0.16   0.17   1.00    5.08    165.800        121.506
            4     24      10.72 FAGASA             C           840.00   0.16   0.10   1.00   17.43     97.200         71.232
            4     25       0.01 AUA                B          1520.00   0.16   0.17   1.00    2.85    165.800        121.506
            5     26       0.46 AUA                B          1520.00   0.16   0.17   1.00    9.15    165.800        121.506
            5     27       0.10 FAGASA             C           840.00   0.16   0.10   1.00    9.20     97.200         71.232
            5     28       0.93 AUA                B          1520.00   0.16   0.17   1.00    4.36    165.800        121.506
            5     29       0.21 FAGASA             C           840.00   0.16   0.10   1.00   13.54     97.200         71.232
            5     30       0.15 AUA                B          1520.00   0.16   0.17   1.00    9.39    165.800        121.506
            5     31       0.04 FAGASA             C           840.00   0.16   0.10   1.00    7.99     97.200         71.232
            5     32       0.11 AUA                B          1520.00   0.16   0.17   1.00    3.07    165.800        121.506
            5     33       0.07 AUA                B          1520.00   0.16   0.17   1.00    3.55    165.800        121.506
            6     34       0.24 AUA                B          1520.00   0.16   0.17   1.00    4.39    165.800        121.506
            6     35       0.01 FAGASA             C           840.00   0.16   0.10   1.00    3.94     97.200         71.232
            6     36       0.07 AUA                B          1520.00   0.16   0.17   1.00    2.99    165.800        121.506
            6     37       0.01 FAGASA             C           840.00   0.16   0.10   1.00    4.12     97.200         71.232
            6     38       0.03 AUA                B          1520.00   0.16   0.17   1.00    3.09    165.800        121.506
            7     39       0.03 AUA                B          1520.00   0.16   0.17   1.00    2.94    165.800        121.506
            7     40       0.02 FAGASA             C           840.00   0.16   0.10   1.00    5.22     97.200         71.232
            7     41       0.32 AUA                B          1520.00   0.16   0.17   1.00    3.60    165.800        121.506
            7     42       0.12 URBAN LAND         D           150.00   0.16   0.00   1.00    1.82      1.500          1.099
            7     43       0.16 FAGASA             C           840.00   0.16   0.10   1.00    6.95     97.200         71.232
            7     44       0.04 URBAN LAND         D           150.00   0.16   0.00   1.00    2.31      1.500          1.099
            7     45       0.05 FAGASA             C           840.00   0.16   0.10   1.00    6.77     97.200         71.232
            7     46       1.69 AUA                B          1520.00   0.16   0.17   1.00    5.06    165.800        121.506
            7     47       4.87 FAGASA             C           840.00   0.16   0.10   1.00   11.66     97.200         71.232
            7     48       0.01 URBAN LAND         D           150.00   0.16   0.00   1.00    2.75      1.500          1.099
            7     49       0.28 AUA                B          1520.00   0.16   0.17   1.00    3.25    165.800        121.506
            7     50       0.06 URBAN LAND         D           150.00   0.16   0.00   1.00    2.36      1.500          1.099

         HRU Input Summary Table 3:
          Sub   HRU   Area(ha) Urban Irrig DrainTiles Pothole Pstcide Biomix Septic
            1      1       0.38                                          0.20 x
            1      2       6.47                                          0.20 x
            1      3       0.05                                          0.20 x
            1      4       0.17                                          0.20 x
            1      5       0.01                                          0.20 x
            1      6       0.14                                          0.20 x
            1      7       0.05                                          0.20 x
            1      8       0.18                                          0.20 x
            2      9       0.41                                          0.20 x
            2     10       6.60                                          0.20 x
            2     11       0.05                                          0.20 x
            2     12       0.03                                          0.20 x
            2     13       0.03                                          0.20 x
            2     14       0.02                                          0.20 x
            2     15       0.02                                          0.20 x
            2     16       0.06                                          0.20 x
            3     17       0.14                                          0.20 x
            3     18       0.02                                          0.20 x
            3     19       0.01                                          0.20 x
            3     20       1.81                                          0.20 x
            3     21      10.10                                          0.20 x
            3     22       0.12                                          0.20 x
            4     23       0.77                                          0.20 x
            4     24      10.72                                          0.20 x
            4     25       0.01                                          0.20 x
            5     26       0.46                                          0.20 x
            5     27       0.10                                          0.20 x
            5     28       0.93                                          0.20 x
            5     29       0.21                                          0.20 x
            5     30       0.15                                          0.20 x
            5     31       0.04                                          0.20 x
            5     32       0.11                                          0.20 x
            5     33       0.07                                          0.20 x
            6     34       0.24                                          0.20 x
            6     35       0.01                                          0.20 x
            6     36       0.07                                          0.20 x
            6     37       0.01                                          0.20 x
            6     38       0.03                                          0.20 x
            7     39       0.03                                          0.20 x
            7     40       0.02                                          0.20 x
            7     41       0.32                                          0.20 x
            7     42       0.12                                          0.20 x
            7     43       0.16                                          0.20 x
            7     44       0.04                                          0.20 x
            7     45       0.05                                          0.20 x
            7     46       1.69                                          0.20 x
            7     47       4.87                                          0.20 x
            7     48       0.01                                          0.20 x
            7     49       0.28                                          0.20 x
            7     50       0.06                                          0.20 x

         HRU Input Summary Table 4 (Groundwater):
          Sub   HRU   Area(ha) GWdelay(days), GWalpha(days) GWQmin(mm) GWrevap Revapmin(mm) Deepfr NO3(ppm) SolP(ppm)
            1      1       0.38        31.000         0.048   1000.000   0.020      750.000  0.050    0.000     0.000
            1      2       6.47        31.000         0.048   1000.000   0.020      750.000  0.050    0.000     0.000
            1      3       0.05        31.000         0.048   1000.000   0.020      750.000  0.050    0.000     0.000
            1      4       0.17        31.000         0.048   1000.000   0.020      750.000  0.050    0.000     0.000
            1      5       0.01        31.000         0.048   1000.000   0.020      750.000  0.050    0.000     0.000
            1      6       0.14        31.000         0.048   1000.000   0.020      750.000  0.050    0.000     0.000
            1      7       0.05        31.000         0.048   1000.000   0.020      750.000  0.050    0.000     0.000
            1      8       0.18        31.000         0.048   1000.000   0.020      750.000  0.050    0.000     0.000
            2      9       0.41        31.000         0.048   1000.000   0.020      750.000  0.050    0.000     0.000
            2     10       6.60        31.000         0.048   1000.000   0.020      750.000  0.050    0.000     0.000
            2     11       0.05        31.000         0.048   1000.000   0.020      750.000  0.050    0.000     0.000
            2     12       0.03        31.000         0.048   1000.000   0.020      750.000  0.050    0.000     0.000
            2     13       0.03        31.000         0.048   1000.000   0.020      750.000  0.050    0.000     0.000
            2     14       0.02        31.000         0.048   1000.000   0.020      750.000  0.050    0.000     0.000
            2     15       0.02        31.000         0.048   1000.000   0.020      750.000  0.050    0.000     0.000
            2     16       0.06        31.000         0.048   1000.000   0.020      750.000  0.050    0.000     0.000
            3     17       0.14        31.000         0.048   1000.000   0.020      750.000  0.050    0.000     0.000
            3     18       0.02        31.000         0.048   1000.000   0.020      750.000  0.050    0.000     0.000
            3     19       0.01        31.000         0.048   1000.000   0.020      750.000  0.050    0.000     0.000
            3     20       1.81        31.000         0.048   1000.000   0.020      750.000  0.050    0.000     0.000
            3     21      10.10        31.000         0.048   1000.000   0.020      750.000  0.050    0.000     0.000
            3     22       0.12        31.000         0.048   1000.000   0.020      750.000  0.050    0.000     0.000
            4     23       0.77        31.000         0.048   1000.000   0.020      750.000  0.050    0.000     0.000
            4     24      10.72        31.000         0.048   1000.000   0.020      750.000  0.050    0.000     0.000
            4     25       0.01        31.000         0.048   1000.000   0.020      750.000  0.050    0.000     0.000
            5     26       0.46        31.000         0.048   1000.000   0.020      750.000  0.050    0.000     0.000
            5     27       0.10        31.000         0.048   1000.000   0.020      750.000  0.050    0.000     0.000
            5     28       0.93        31.000         0.048   1000.000   0.020      750.000  0.050    0.000     0.000
            5     29       0.21        31.000         0.048   1000.000   0.020      750.000  0.050    0.000     0.000
            5     30       0.15        31.000         0.048   1000.000   0.020      750.000  0.050    0.000     0.000
            5     31       0.04        31.000         0.048   1000.000   0.020      750.000  0.050    0.000     0.000
            5     32       0.11        31.000         0.048   1000.000   0.020      750.000  0.050    0.000     0.000
            5     33       0.07        31.000         0.048   1000.000   0.020      750.000  0.050    0.000     0.000
            6     34       0.24        31.000         0.048   1000.000   0.020      750.000  0.050    0.000     0.000
            6     35       0.01        31.000         0.048   1000.000   0.020      750.000  0.050    0.000     0.000
            6     36       0.07        31.000         0.048   1000.000   0.020      750.000  0.050    0.000     0.000
            6     37       0.01        31.000         0.048   1000.000   0.020      750.000  0.050    0.000     0.000
            6     38       0.03        31.000         0.048   1000.000   0.020      750.000  0.050    0.000     0.000
            7     39       0.03        31.000         0.048   1000.000   0.020      750.000  0.050    0.000     0.000
            7     40       0.02        31.000         0.048   1000.000   0.020      750.000  0.050    0.000     0.000
            7     41       0.32        31.000         0.048   1000.000   0.020      750.000  0.050    0.000     0.000
            7     42       0.12        31.000         0.048   1000.000   0.020      750.000  0.050    0.000     0.000
            7     43       0.16        31.000         0.048   1000.000   0.020      750.000  0.050    0.000     0.000
            7     44       0.04        31.000         0.048   1000.000   0.020      750.000  0.050    0.000     0.000
            7     45       0.05        31.000         0.048   1000.000   0.020      750.000  0.050    0.000     0.000
            7     46       1.69        31.000         0.048   1000.000   0.020      750.000  0.050    0.000     0.000
            7     47       4.87        31.000         0.048   1000.000   0.020      750.000  0.050    0.000     0.000
            7     48       0.01        31.000         0.048   1000.000   0.020      750.000  0.050    0.000     0.000
            7     49       0.28        31.000         0.048   1000.000   0.020      750.000  0.050    0.000     0.000
            7     50       0.06        31.000         0.048   1000.000   0.020      750.000  0.050    0.000     0.000

         Tributary/Main Channel Characteristics
              |--------------Tributary--------------------|---------------------Main---------------------------|
          Sub  Length(km) Slope Width(m) Cond(mm/hr)     N Length(km) Slope Width(m) Depth(m) Cond(mm/hr)     N
            1        0.77 0.479     0.27      0.0000 0.014       0.09 0.223     0.27     0.05      0.0000 0.014
            2        0.72 0.513     0.27      0.0000 0.014       0.11 0.264     0.27     0.05      0.0000 0.014
            3        0.60 0.560     0.37      0.0000 0.014       0.18 0.250     0.37     0.06      0.0000 0.014
            4        0.71 0.527     0.35      0.0000 0.014       0.35 0.317     0.35     0.05      0.0000 0.014
            5        0.32 0.406     0.13      0.0000 0.014       0.14 0.221     0.57     0.08      0.0000 0.014
            6        0.15 0.248     0.04      0.0000 0.014       0.05 0.189     0.67     0.08      0.0000 0.014
            7        0.73 0.370     0.28      0.0000 0.014       0.27 0.138     0.84     0.10      0.0000 0.014
