1
    SWAT Dec 23 2016    VER 2016/Rev 664                                                                 0/ 0/   0      0: 0: 0

    General Input/Output section (file.cio):                                        
    2/7/2020 21:48:54 QSWAT Workflow v1.5.2                                         
                                                                                    
         Number of years in run:   12
         Area of watershed:        0.485 km2
         Random number generator cycles: 0, use default numbers

         Initial random number seed: wet/dry day prob        748932582
         Initial random number seed: radiation              1948832765
         Initial random number seed: precipitation           857034417
         Initial random number seed: 0.5 hr rainfall          67377721
         Initial random number seed: wind speed              366304404
         Initial random number seed: irrigation             1094585182
         Initial random number seed: relative humidity      1767585417
         Initial random number seed: max temperature         608439319
         Initial random number seed: min temperature         592757081

         Precipitation data used in run:
          Multiple gages read for watershed
             Daily rainfall data used

         Temperature data used in run:
          Multiple gages read for watershed

         PET method used: Penman-Monteith

         Rainfall/Runoff/Routing Option:
          Daily rainfall data
          Runoff estimated with curve number method
          Daily stream routing
           Variable Storage routing method
           Channel dimensions remain constant
           Subbasin algae/CBOD loadings not modeled
           In-stream nutrient transformations modeled using QUAL2E equations

         Subbasin Input Summary:
          Sub Latitude  Elev(m) #HRUs Ponds Elevbnds Wetlnd
            1   -14.29   256.73     6                   
            2   -14.29   299.04     3                   
            3   -14.29   182.48    14                   

         HRU Input Summary Table 1:
          Sub   HRU   Area(ha) Slope SlpLgth(m) Ovrlnd_N CondII_CN TimeConc(hr) ESCO EPCO
            1      1       0.14 0.462       9.15    0.100     59.00        0.067 0.95 1.00
            1      2       0.02 0.000     121.95    0.100     55.00        3.952 0.95 1.00
            1      3       0.01 0.026      91.46    0.100     55.00        0.627 0.95 1.00
            1      4       1.81 0.461       9.15    0.100     55.00        0.071 0.95 1.00
            1      5      10.10 0.901       9.15    0.100     70.00        0.075 0.95 1.00
            1      6       0.12 0.305       9.15    0.100     66.00        0.076 0.95 1.00
            2      7       0.77 0.348       9.15    0.100     55.00        0.075 0.95 1.00
            2      8      10.72 0.829       9.15    0.100     70.00        0.084 0.95 1.00
            2      9       0.01 0.190      18.29    0.100     70.00        0.132 0.95 1.00
            3     10       0.49 0.489       9.15    0.100     59.00        0.067 0.95 1.00
            3     11       0.12 0.484       9.15    0.100     72.00        0.066 0.95 1.00
            3     12       0.54 0.275       9.15    0.100     72.00        0.079 0.95 1.00
            3     13       0.12 0.129      24.39    0.100     72.00        0.176 0.95 1.00
            3     14       0.34 0.366       9.15    0.100     72.00        0.072 0.95 1.00
            3     15       0.26 0.422       9.15    0.100     66.00        0.069 0.95 1.00
            3     16       0.04 0.150      24.39    0.100     83.00        0.168 0.95 1.00
            3     17       0.31 0.384       9.15    0.100     77.00        0.071 0.95 1.00
            3     18       3.65 0.327       9.15    0.100     55.00        0.082 0.95 1.00
            3     19      18.15 0.615       9.15    0.100     70.00        0.095 0.95 1.00
            3     20       0.01 0.186      18.29    0.100     77.00        0.132 0.95 1.00
            3     21       0.45 0.261       9.15    0.100     77.00        0.080 0.95 1.00
            3     22       0.06 0.169      18.29    0.100     77.00        0.136 0.95 1.00
            3     23       0.25 0.309       9.15    0.100     77.00        0.076 0.95 1.00

         HRU CN Input Summary Table:
          Sub   HRU   Area(ha)  LULC      Soil    CN1    CN2    CN3  Wilting Point (mm H2O)  Field Capacity (mm H2O)  Saturation (mm H2O)
            1      1       0.14  SWCH  AUA        39.4   59.0   77.7                   211.7                    165.8                763.4
            1      2       0.02  FRSE  AUA        35.3   55.0   74.5                   211.7                    165.8                763.4
            1      3       0.01  FRSE  AUA        35.3   55.0   74.5                   211.7                    165.8                763.4
            1      4       1.81  FRSE  AUA        35.3   55.0   74.5                   211.7                    165.8                763.4
            1      5      10.10  FRSE  FAGASA     51.2   70.0   85.7                   132.2                     97.2                365.5
            1      6       0.12  FRSD  AUA        46.8   66.0   83.0                   211.7                    165.8                763.4
            2      7       0.77  FRSE  AUA        35.3   55.0   74.5                   211.7                    165.8                763.4
            2      8      10.72  FRSE  FAGASA     51.2   70.0   85.7                   132.2                     97.2                365.5
            2      9       0.01  FRSE  AUA        51.2   70.0   85.7                   211.7                    165.8                763.4
            3     10       0.49  SWCH  AUA        39.4   59.0   77.7                   211.7                    165.8                763.4
            3     11       0.12  SWCH  FAGASA     53.4   72.0   86.9                   132.2                     97.2                365.5
            3     12       0.54  SWCH  AUA        53.4   72.0   86.9                   211.7                    165.8                763.4
            3     13       0.12  SWCH  URBAN LA   53.4   72.0   86.9                     0.8                      1.5                 75.7
            3     14       0.34  SWCH  FAGASA     53.4   72.0   86.9                   132.2                     97.2                365.5
            3     15       0.26  FRSD  AUA        46.8   66.0   83.0                   211.7                    165.8                763.4
            3     16       0.04  FRSD  URBAN LA   67.0   83.0   93.1                     0.8                      1.5                 75.7
            3     17       0.31  FRSD  FAGASA     59.3   77.0   89.9                   132.2                     97.2                365.5
            3     18       3.65  FRSE  AUA        35.3   55.0   74.5                   211.7                    165.8                763.4
            3     19      18.15  FRSE  FAGASA     51.2   70.0   85.7                   132.2                     97.2                365.5
            3     20       0.01  FRSE  URBAN LA   59.3   77.0   89.9                     0.8                      1.5                 75.7
            3     21       0.45  FRSE  AUA        59.3   77.0   89.9                   211.7                    165.8                763.4
            3     22       0.06  FRSE  URBAN LA   59.3   77.0   89.9                     0.8                      1.5                 75.7
            3     23       0.25  FRSE  FAGASA     59.3   77.0   89.9                   132.2                     97.2                365.5

         HRU Input Summary Table 2:
          Sub   HRU   Area(ha)         SoilName Hydgrp MaxRtDpth(mm) Albedo USLE_K USLE_P USLE_LS ProfileAWC(mm) IniSoilH2O(mm)
            1      1       0.14 AUA                B          1520.00   0.16   0.17   1.00    7.94    165.800        121.506
            1      2       0.02 AUA                B          1520.00   0.16   0.17   1.00    0.07    165.800        121.506
            1      3       0.01 AUA                B          1520.00   0.16   0.17   1.00    0.38    165.800        121.506
            1      4       1.81 AUA                B          1520.00   0.16   0.17   1.00    7.91    165.800        121.506
            1      5      10.10 FAGASA             C           840.00   0.16   0.10   1.00   19.08     97.200         71.232
            1      6       0.12 AUA                B          1520.00   0.16   0.17   1.00    4.10    165.800        121.506
            2      7       0.77 AUA                B          1520.00   0.16   0.17   1.00    5.08    165.800        121.506
            2      8      10.72 FAGASA             C           840.00   0.16   0.10   1.00   17.43     97.200         71.232
            2      9       0.01 AUA                B          1520.00   0.16   0.17   1.00    2.85    165.800        121.506
            3     10       0.49 AUA                B          1520.00   0.16   0.17   1.00    8.65    165.800        121.506
            3     11       0.12 FAGASA             C           840.00   0.16   0.10   1.00    8.51     97.200         71.232
            3     12       0.54 AUA                B          1520.00   0.16   0.17   1.00    3.46    165.800        121.506
            3     13       0.12 URBAN LAND         D           150.00   0.16   0.00   1.00    1.82      1.500          1.099
            3     14       0.34 FAGASA             C           840.00   0.16   0.10   1.00    5.51     97.200         71.232
            3     15       0.26 AUA                B          1520.00   0.16   0.17   1.00    6.90    165.800        121.506
            3     16       0.04 URBAN LAND         D           150.00   0.16   0.00   1.00    2.31      1.500          1.099
            3     17       0.31 FAGASA             C           840.00   0.16   0.10   1.00    5.95     97.200         71.232
            3     18       3.65 AUA                B          1520.00   0.16   0.17   1.00    4.59    165.800        121.506
            3     19      18.15 FAGASA             C           840.00   0.16   0.10   1.00   12.01     97.200         71.232
            3     20       0.01 URBAN LAND         D           150.00   0.16   0.00   1.00    2.75      1.500          1.099
            3     21       0.45 AUA                B          1520.00   0.16   0.17   1.00    3.17    165.800        121.506
            3     22       0.06 URBAN LAND         D           150.00   0.16   0.00   1.00    2.36      1.500          1.099
            3     23       0.25 FAGASA             C           840.00   0.16   0.10   1.00    4.19     97.200         71.232

         HRU Input Summary Table 3:
          Sub   HRU   Area(ha) Urban Irrig DrainTiles Pothole Pstcide Biomix Septic
            1      1       0.14                                          0.20 x
            1      2       0.02                                          0.20 x
            1      3       0.01                                          0.20 x
            1      4       1.81                                          0.20 x
            1      5      10.10                                          0.20 x
            1      6       0.12                                          0.20 x
            2      7       0.77                                          0.20 x
            2      8      10.72                                          0.20 x
            2      9       0.01                                          0.20 x
            3     10       0.49                                          0.20 x
            3     11       0.12                                          0.20 x
            3     12       0.54                                          0.20 x
            3     13       0.12                                          0.20 x
            3     14       0.34                                          0.20 x
            3     15       0.26                                          0.20 x
            3     16       0.04                                          0.20 x
            3     17       0.31                                          0.20 x
            3     18       3.65                                          0.20 x
            3     19      18.15                                          0.20 x
            3     20       0.01                                          0.20 x
            3     21       0.45                                          0.20 x
            3     22       0.06                                          0.20 x
            3     23       0.25                                          0.20 x

         HRU Input Summary Table 4 (Groundwater):
          Sub   HRU   Area(ha) GWdelay(days), GWalpha(days) GWQmin(mm) GWrevap Revapmin(mm) Deepfr NO3(ppm) SolP(ppm)
            1      1       0.14        31.000         0.048   1000.000   0.020      750.000  0.050    0.000     0.000
            1      2       0.02        31.000         0.048   1000.000   0.020      750.000  0.050    0.000     0.000
            1      3       0.01        31.000         0.048   1000.000   0.020      750.000  0.050    0.000     0.000
            1      4       1.81        31.000         0.048   1000.000   0.020      750.000  0.050    0.000     0.000
            1      5      10.10        31.000         0.048   1000.000   0.020      750.000  0.050    0.000     0.000
            1      6       0.12        31.000         0.048   1000.000   0.020      750.000  0.050    0.000     0.000
            2      7       0.77        31.000         0.048   1000.000   0.020      750.000  0.050    0.000     0.000
            2      8      10.72        31.000         0.048   1000.000   0.020      750.000  0.050    0.000     0.000
            2      9       0.01        31.000         0.048   1000.000   0.020      750.000  0.050    0.000     0.000
            3     10       0.49        31.000         0.048   1000.000   0.020      750.000  0.050    0.000     0.000
            3     11       0.12        31.000         0.048   1000.000   0.020      750.000  0.050    0.000     0.000
            3     12       0.54        31.000         0.048   1000.000   0.020      750.000  0.050    0.000     0.000
            3     13       0.12        31.000         0.048   1000.000   0.020      750.000  0.050    0.000     0.000
            3     14       0.34        31.000         0.048   1000.000   0.020      750.000  0.050    0.000     0.000
            3     15       0.26        31.000         0.048   1000.000   0.020      750.000  0.050    0.000     0.000
            3     16       0.04        31.000         0.048   1000.000   0.020      750.000  0.050    0.000     0.000
            3     17       0.31        31.000         0.048   1000.000   0.020      750.000  0.050    0.000     0.000
            3     18       3.65        31.000         0.048   1000.000   0.020      750.000  0.050    0.000     0.000
            3     19      18.15        31.000         0.048   1000.000   0.020      750.000  0.050    0.000     0.000
            3     20       0.01        31.000         0.048   1000.000   0.020      750.000  0.050    0.000     0.000
            3     21       0.45        31.000         0.048   1000.000   0.020      750.000  0.050    0.000     0.000
            3     22       0.06        31.000         0.048   1000.000   0.020      750.000  0.050    0.000     0.000
            3     23       0.25        31.000         0.048   1000.000   0.020      750.000  0.050    0.000     0.000

         Tributary/Main Channel Characteristics
              |--------------Tributary--------------------|---------------------Main---------------------------|
          Sub  Length(km) Slope Width(m) Cond(mm/hr)     N Length(km) Slope Width(m) Depth(m) Cond(mm/hr)     N
            1        0.60 0.560     0.37      0.0000 0.014       0.03 0.175     0.37     0.06      0.0000 0.014
            2        0.71 0.527     0.35      0.0000 0.014       0.06 0.213     0.35     0.05      0.0000 0.014
            3        1.04 0.400     0.56      0.0000 0.014       0.46 0.169     0.84     0.10      0.0000 0.014
