1
    SWAT Dec 23 2016    VER 2016/Rev 664                                                                 0/ 0/   0      0: 0: 0

    General Input/Output section (file.cio):                                        
    2/11/2020 16:46:09 QSWAT Workflow v1.5.2                                        
                                                                                    


       RCH      GIS   MON     AREAkm2  FLOW_INcms FLOW_OUTcms     EVAPcms    TLOSScms  SED_INtons SED_OUTtons SEDCONCmg/L   ORGN_INkg  ORGN_OUTkg   ORGP_INkg  ORGP_OUTkg    NO3_INkg   NO3_OUTkg    NH4_INkg   NH4_OUTkg    NO2_INkg   NO2_OUTkg   MINP_INkg  MINP_OUTkg   CHLA_INkg  CHLA_OUTkg   CBOD_INkg  CBOD_OUTkg  DISOX_INkg DISOX_OUTkg SOLPST_INmgSOLPST_OUTmg SORPST_INmgSORPST_OUTmg  REACTPSTmg    VOLPSTmg  SETTLPSTmgRESUSP_PSTmgDIFFUSEPSTmgREACBEDPSTmg   BURYPSTmg   BED_PSTmg BACTP_OUTctBACTLP_OUTct  CMETAL#1kg  CMETAL#2kg  CMETAL#3kg     TOT Nkg     TOT Pkg NO3ConcMg/l    WTMPdegc
REACH    1        0     1  0.1220E+00  0.2092E-01  0.2092E-01  0.5323E-06  0.0000E+00  0.2658E+03  0.2658E+03  0.2002E+04  0.3475E+03  0.3475E+03  0.7661E+02  0.7660E+02  0.5441E+01  0.5440E+01  0.0000E+00  0.1627E-01  0.0000E+00  0.0000E+00  0.1009E+00  0.1068E+00  0.3542E+01  0.3530E+01  0.2945E+05  0.2944E+05  0.3507E+03  0.1645E+03  0.0000E+00  0.0000E+00  0.0000E+00  0.0000E+00  0.0000E+00  0.0000E+00  0.0000E+00  0.0000E+00  0.0000E+00  0.0000E+00  0.0000E+00  0.0000E+00  0.0000E+00  0.0000E+00  0.0000E+00  0.0000E+00  0.0000E+00  0.3529E+03  0.7671E+02  0.0000E+00  0.0000E+00
REACH    2        0     1  0.1150E+00  0.1979E-01  0.1979E-01  0.1153E-05  0.0000E+00  0.2563E+03  0.2563E+03  0.2033E+04  0.3454E+03  0.3453E+03  0.7618E+02  0.7617E+02  0.4894E+01  0.4894E+01  0.0000E+00  0.3021E-01  0.0000E+00  0.0000E+00  0.8780E-01  0.9877E-01  0.3610E+01  0.3588E+01  0.2909E+05  0.2906E+05  0.3240E+03  0.1539E+03  0.0000E+00  0.0000E+00  0.0000E+00  0.0000E+00  0.0000E+00  0.0000E+00  0.0000E+00  0.0000E+00  0.0000E+00  0.0000E+00  0.0000E+00  0.0000E+00  0.0000E+00  0.0000E+00  0.0000E+00  0.0000E+00  0.0000E+00  0.3502E+03  0.7626E+02  0.0000E+00  0.0000E+00
REACH    3        0     1  0.4850E+00  0.8296E-01  0.8294E-01  0.1419E-04  0.0000E+00  0.8473E+03  0.7483E+02  0.2432E+03  0.1273E+04  0.1272E+04  0.2804E+03  0.2802E+03  0.2251E+02  0.2251E+02  0.4648E-01  0.1394E+00  0.0000E+00  0.0000E+00  0.5516E+00  0.7324E+00  0.1310E+02  0.1284E+02  0.9856E+05  0.9816E+05  0.1030E+04  0.6525E+03  0.0000E+00  0.0000E+00  0.0000E+00  0.0000E+00  0.0000E+00  0.0000E+00  0.0000E+00  0.0000E+00  0.0000E+00  0.0000E+00  0.0000E+00  0.0000E+00  0.0000E+00  0.0000E+00  0.0000E+00  0.0000E+00  0.0000E+00  0.1295E+04  0.2809E+03  0.0000E+00  0.0000E+00
REACH    1        0     2  0.1220E+00  0.7107E-02  0.7107E-02  0.2784E-06  0.0000E+00  0.1345E+03  0.1345E+03  0.8627E+03  0.7887E+02  0.7886E+02  0.1740E+02  0.1740E+02  0.1557E+01  0.1557E+01  0.0000E+00  0.3729E-02  0.0000E+00  0.0000E+00  0.1689E-01  0.1822E-01  0.1029E+01  0.1026E+01  0.1565E+05  0.1565E+05  0.1013E+03  0.6301E+02  0.0000E+00  0.0000E+00  0.0000E+00  0.0000E+00  0.0000E+00  0.0000E+00  0.0000E+00  0.0000E+00  0.0000E+00  0.0000E+00  0.0000E+00  0.0000E+00  0.0000E+00  0.0000E+00  0.0000E+00  0.0000E+00  0.0000E+00  0.8042E+02  0.1742E+02  0.0000E+00  0.0000E+00
REACH    2        0     2  0.1150E+00  0.6619E-02  0.6619E-02  0.6082E-06  0.0000E+00  0.1295E+03  0.1295E+03  0.8718E+03  0.7833E+02  0.7832E+02  0.1730E+02  0.1730E+02  0.1426E+01  0.1426E+01  0.0000E+00  0.8447E-02  0.0000E+00  0.0000E+00  0.1332E-01  0.1634E-01  0.1068E+01  0.1060E+01  0.1544E+05  0.1542E+05  0.9181E+02  0.5708E+02  0.0000E+00  0.0000E+00  0.0000E+00  0.0000E+00  0.0000E+00  0.0000E+00  0.0000E+00  0.0000E+00  0.0000E+00  0.0000E+00  0.0000E+00  0.0000E+00  0.0000E+00  0.0000E+00  0.0000E+00  0.0000E+00  0.0000E+00  0.7976E+02  0.1732E+02  0.0000E+00  0.0000E+00
REACH    3        0     2  0.4850E+00  0.2835E-01  0.2833E-01  0.1279E-04  0.0000E+00  0.4284E+03  0.1556E+02  0.1087E+03  0.3059E+03  0.3056E+03  0.6741E+02  0.6732E+02  0.6275E+01  0.6271E+01  0.1218E-01  0.3652E-01  0.0000E+00  0.1750E-05  0.1036E+00  0.1718E+00  0.4078E+01  0.3970E+01  0.5234E+05  0.5202E+05  0.3299E+03  0.2517E+03  0.0000E+00  0.0000E+00  0.0000E+00  0.0000E+00  0.0000E+00  0.0000E+00  0.0000E+00  0.0000E+00  0.0000E+00  0.0000E+00  0.0000E+00  0.0000E+00  0.0000E+00  0.0000E+00  0.0000E+00  0.0000E+00  0.0000E+00  0.3119E+03  0.6749E+02  0.0000E+00  0.0000E+00
REACH    1        0     3  0.1220E+00  0.1943E-02  0.1942E-02  0.2147E-06  0.0000E+00  0.1660E-06  0.1660E-06  0.1426E-03  0.3778E-06  0.1215E-07  0.1133E-05  0.4744E-06  0.4208E+00  0.4207E+00  0.0000E+00  0.9518E-04  0.0000E+00  0.0000E+00  0.6238E-06  0.3652E-07  0.3715E-14  0.0000E+00  0.0000E+00  0.0000E+00  0.4294E+02  0.4179E+02  0.0000E+00  0.0000E+00  0.0000E+00  0.0000E+00  0.0000E+00  0.0000E+00  0.0000E+00  0.0000E+00  0.0000E+00  0.0000E+00  0.0000E+00  0.0000E+00  0.0000E+00  0.0000E+00  0.0000E+00  0.0000E+00  0.0000E+00  0.4208E+00  0.5109E-06  0.0000E+00  0.0000E+00
REACH    2        0     3  0.1150E+00  0.1796E-02  0.1796E-02  0.4570E-06  0.0000E+00  0.9300E-07  0.9300E-07  0.1309E-03  0.3566E-06  0.1257E-06  0.1070E-05  0.4798E-06  0.6679E-02  0.6671E-02  0.0000E+00  0.2028E-03  0.0000E+00  0.0000E+00  0.7062E-06  0.3786E-06  0.1298E-11  0.0000E+00  0.0000E+00  0.0000E+00  0.3970E+02  0.3864E+02  0.0000E+00  0.0000E+00  0.0000E+00  0.0000E+00  0.0000E+00  0.0000E+00  0.0000E+00  0.0000E+00  0.0000E+00  0.0000E+00  0.0000E+00  0.0000E+00  0.0000E+00  0.0000E+00  0.0000E+00  0.0000E+00  0.0000E+00  0.6874E-02  0.8584E-06  0.0000E+00  0.0000E+00
REACH    3        0     3  0.4850E+00  0.7874E-02  0.7863E-02  0.1016E-04  0.0000E+00  0.6930E-06  0.3177E+01  0.7924E+02  0.9067E-06  0.4653E-07  0.3260E-05  0.1849E-05  0.4746E+01  0.4737E+01  0.2980E-03  0.8902E-03  0.0000E+00  0.2128E-05  0.6824E-03  0.8172E-03  0.1725E-01  0.1411E-01  0.0000E+00  0.0000E+00  0.1718E+03  0.1692E+03  0.0000E+00  0.0000E+00  0.0000E+00  0.0000E+00  0.0000E+00  0.0000E+00  0.0000E+00  0.0000E+00  0.0000E+00  0.0000E+00  0.0000E+00  0.0000E+00  0.0000E+00  0.0000E+00  0.0000E+00  0.0000E+00  0.0000E+00  0.4738E+01  0.8191E-03  0.0000E+00  0.0000E+00
REACH    1        0     4  0.1220E+00  0.6421E-02  0.6420E-02  0.3260E-06  0.0000E+00  0.3407E+00  0.3407E+00  0.2143E+01  0.3054E+00  0.3054E+00  0.6608E-01  0.6607E-01  0.3382E+00  0.3382E+00  0.0000E+00  0.1204E-03  0.0000E+00  0.0000E+00  0.8095E-02  0.8104E-02  0.1159E-02  0.1156E-02  0.4017E+02  0.4016E+02  0.1222E+03  0.9226E+02  0.0000E+00  0.0000E+00  0.0000E+00  0.0000E+00  0.0000E+00  0.0000E+00  0.0000E+00  0.0000E+00  0.0000E+00  0.0000E+00  0.0000E+00  0.0000E+00  0.0000E+00  0.0000E+00  0.0000E+00  0.0000E+00  0.0000E+00  0.6437E+00  0.7418E-01  0.0000E+00  0.0000E+00
REACH    2        0     4  0.1150E+00  0.6135E-02  0.6134E-02  0.6992E-06  0.0000E+00  0.3280E+00  0.3280E+00  0.2149E+01  0.2981E+00  0.2981E+00  0.6465E-01  0.6463E-01  0.3107E+00  0.3106E+00  0.0000E+00  0.2489E-03  0.0000E+00  0.0000E+00  0.5634E-02  0.5648E-02  0.1162E-02  0.1154E-02  0.3892E+02  0.3888E+02  0.1159E+03  0.8778E+02  0.0000E+00  0.0000E+00  0.0000E+00  0.0000E+00  0.0000E+00  0.0000E+00  0.0000E+00  0.0000E+00  0.0000E+00  0.0000E+00  0.0000E+00  0.0000E+00  0.0000E+00  0.0000E+00  0.0000E+00  0.0000E+00  0.0000E+00  0.6090E+00  0.7028E-01  0.0000E+00  0.0000E+00
REACH    3        0     4  0.4850E+00  0.2540E-01  0.2539E-01  0.1062E-04  0.0000E+00  0.1108E+01  0.2403E+02  0.9609E+02  0.1339E+01  0.1338E+01  0.2872E+00  0.2870E+00  0.1451E+01  0.1451E+01  0.3693E-03  0.1099E-02  0.0000E+00  0.6105E-05  0.5041E-01  0.5071E-01  0.6961E-02  0.6798E-02  0.1321E+03  0.1317E+03  0.4298E+03  0.3821E+03  0.0000E+00  0.0000E+00  0.0000E+00  0.0000E+00  0.0000E+00  0.0000E+00  0.0000E+00  0.0000E+00  0.0000E+00  0.0000E+00  0.0000E+00  0.0000E+00  0.0000E+00  0.0000E+00  0.0000E+00  0.0000E+00  0.0000E+00  0.2790E+01  0.3377E+00  0.0000E+00  0.0000E+00
REACH    1        0     5  0.1220E+00  0.3600E-02  0.3599E-02  0.2530E-06  0.0000E+00  0.1750E-01  0.1750E-01  0.2805E+00  0.1424E-01  0.1424E-01  0.3094E-02  0.3093E-02  0.6486E+00  0.6486E+00  0.0000E+00  0.9814E-04  0.0000E+00  0.0000E+00  0.4823E-03  0.4867E-03  0.4658E-05  0.4544E-05  0.5490E+00  0.5489E+00  0.7960E+02  0.7701E+02  0.0000E+00  0.0000E+00  0.0000E+00  0.0000E+00  0.0000E+00  0.0000E+00  0.0000E+00  0.0000E+00  0.0000E+00  0.0000E+00  0.0000E+00  0.0000E+00  0.0000E+00  0.0000E+00  0.0000E+00  0.0000E+00  0.0000E+00  0.6629E+00  0.3579E-02  0.0000E+00  0.0000E+00
REACH    2        0     5  0.1150E+00  0.3428E-02  0.3427E-02  0.5458E-06  0.0000E+00  0.1709E-01  0.1709E-01  0.2855E+00  0.1514E-01  0.1514E-01  0.3288E-02  0.3287E-02  0.6004E+00  0.6003E+00  0.0000E+00  0.2105E-03  0.0000E+00  0.0000E+00  0.3557E-03  0.3569E-03  0.4946E-05  0.4907E-05  0.5359E+00  0.5355E+00  0.7578E+02  0.7330E+02  0.0000E+00  0.0000E+00  0.0000E+00  0.0000E+00  0.0000E+00  0.0000E+00  0.0000E+00  0.0000E+00  0.0000E+00  0.0000E+00  0.0000E+00  0.0000E+00  0.0000E+00  0.0000E+00  0.0000E+00  0.0000E+00  0.0000E+00  0.6157E+00  0.3643E-02  0.0000E+00  0.0000E+00
REACH    3        0     5  0.4850E+00  0.1407E-01  0.1406E-01  0.1193E-04  0.0000E+00  0.5714E-01  0.7903E+01  0.1079E+03  0.6162E-01  0.6158E-01  0.1332E-01  0.1331E-01  0.2539E+01  0.2537E+01  0.3087E-03  0.9215E-03  0.0000E+00  0.1515E-05  0.4065E-02  0.4371E-02  0.9711E-03  0.8105E-03  0.1901E+01  0.1893E+01  0.3062E+03  0.3012E+03  0.0000E+00  0.0000E+00  0.0000E+00  0.0000E+00  0.0000E+00  0.0000E+00  0.0000E+00  0.0000E+00  0.0000E+00  0.0000E+00  0.0000E+00  0.0000E+00  0.0000E+00  0.0000E+00  0.0000E+00  0.0000E+00  0.0000E+00  0.2599E+01  0.1768E-01  0.0000E+00  0.0000E+00
REACH    1        0     6  0.1220E+00  0.1048E-01  0.1048E-01  0.2281E-06  0.0000E+00  0.3413E+01  0.3413E+01  0.8092E+01  0.3086E+01  0.3086E+01  0.6694E+00  0.6693E+00  0.2441E+01  0.2441E+01  0.0000E+00  0.1856E-03  0.0000E+00  0.0000E+00  0.4630E-01  0.4633E-01  0.5464E-01  0.5456E-01  0.8653E+03  0.8651E+03  0.1401E+03  0.8395E+02  0.0000E+00  0.0000E+00  0.0000E+00  0.0000E+00  0.0000E+00  0.0000E+00  0.0000E+00  0.0000E+00  0.0000E+00  0.0000E+00  0.0000E+00  0.0000E+00  0.0000E+00  0.0000E+00  0.0000E+00  0.0000E+00  0.0000E+00  0.5527E+01  0.7157E+00  0.0000E+00  0.0000E+00
REACH    2        0     6  0.1150E+00  0.9948E-02  0.9947E-02  0.4932E-06  0.0000E+00  0.3276E+01  0.3276E+01  0.8156E+01  0.2998E+01  0.2998E+01  0.6516E+00  0.6516E+00  0.2224E+01  0.2224E+01  0.0000E+00  0.4061E-03  0.0000E+00  0.0000E+00  0.3752E-01  0.3759E-01  0.5448E-01  0.5429E-01  0.8343E+03  0.8338E+03  0.1288E+03  0.7886E+02  0.0000E+00  0.0000E+00  0.0000E+00  0.0000E+00  0.0000E+00  0.0000E+00  0.0000E+00  0.0000E+00  0.0000E+00  0.0000E+00  0.0000E+00  0.0000E+00  0.0000E+00  0.0000E+00  0.0000E+00  0.0000E+00  0.0000E+00  0.5222E+01  0.6891E+00  0.0000E+00  0.0000E+00
REACH    3        0     6  0.4850E+00  0.4150E-01  0.4149E-01  0.1027E-04  0.0000E+00  0.1094E+02  0.3013E+02  0.1307E+03  0.1224E+02  0.1224E+02  0.2644E+01  0.2642E+01  0.9647E+01  0.9644E+01  0.5916E-03  0.1773E-02  0.0000E+00  0.7697E-06  0.2281E+00  0.2301E+00  0.2231E+00  0.2196E+00  0.2779E+04  0.2768E+04  0.4508E+03  0.3306E+03  0.0000E+00  0.0000E+00  0.0000E+00  0.0000E+00  0.0000E+00  0.0000E+00  0.0000E+00  0.0000E+00  0.0000E+00  0.0000E+00  0.0000E+00  0.0000E+00  0.0000E+00  0.0000E+00  0.0000E+00  0.0000E+00  0.0000E+00  0.2188E+02  0.2872E+01  0.0000E+00  0.0000E+00
REACH    1        0     7  0.1220E+00  0.7424E-02  0.7423E-02  0.2246E-06  0.0000E+00  0.6371E+00  0.6371E+00  0.9165E+01  0.6218E+00  0.6217E+00  0.1359E+00  0.1359E+00  0.2487E+01  0.2487E+01  0.0000E+00  0.1176E-03  0.0000E+00  0.0000E+00  0.4846E-02  0.4857E-02  0.5941E-03  0.5924E-03  0.3873E+02  0.3872E+02  0.1597E+03  0.1274E+03  0.0000E+00  0.0000E+00  0.0000E+00  0.0000E+00  0.0000E+00  0.0000E+00  0.0000E+00  0.0000E+00  0.0000E+00  0.0000E+00  0.0000E+00  0.0000E+00  0.0000E+00  0.0000E+00  0.0000E+00  0.0000E+00  0.0000E+00  0.3109E+01  0.1408E+00  0.0000E+00  0.0000E+00
REACH    2        0     7  0.1150E+00  0.7084E-02  0.7084E-02  0.4826E-06  0.0000E+00  0.6191E+00  0.6191E+00  0.9295E+01  0.6460E+00  0.6459E+00  0.1411E+00  0.1411E+00  0.2341E+01  0.2341E+01  0.0000E+00  0.2554E-03  0.0000E+00  0.0000E+00  0.4089E-02  0.4111E-02  0.6310E-03  0.6269E-03  0.3778E+02  0.3776E+02  0.1517E+03  0.1211E+03  0.0000E+00  0.0000E+00  0.0000E+00  0.0000E+00  0.0000E+00  0.0000E+00  0.0000E+00  0.0000E+00  0.0000E+00  0.0000E+00  0.0000E+00  0.0000E+00  0.0000E+00  0.0000E+00  0.0000E+00  0.0000E+00  0.0000E+00  0.2987E+01  0.1452E+00  0.0000E+00  0.0000E+00
REACH    3        0     7  0.4850E+00  0.2949E-01  0.2948E-01  0.9832E-05  0.0000E+00  0.2060E+01  0.2071E+02  0.1639E+03  0.2563E+01  0.2562E+01  0.5571E+00  0.5566E+00  0.1104E+02  0.1104E+02  0.3730E-03  0.1118E-02  0.0000E+00  0.2848E-06  0.3458E-01  0.3525E-01  0.4229E-01  0.3714E-01  0.1280E+03  0.1275E+03  0.5711E+03  0.5185E+03  0.0000E+00  0.0000E+00  0.0000E+00  0.0000E+00  0.0000E+00  0.0000E+00  0.0000E+00  0.0000E+00  0.0000E+00  0.0000E+00  0.0000E+00  0.0000E+00  0.0000E+00  0.0000E+00  0.0000E+00  0.0000E+00  0.0000E+00  0.1360E+02  0.5918E+00  0.0000E+00  0.0000E+00
REACH    1        0     8  0.1220E+00  0.1710E-01  0.1710E-01  0.3937E-06  0.0000E+00  0.2187E+02  0.2187E+02  0.1007E+03  0.2159E+02  0.2159E+02  0.4725E+01  0.4724E+01  0.2717E+01  0.2717E+01  0.0000E+00  0.8731E-03  0.0000E+00  0.0000E+00  0.6322E-01  0.6350E-01  0.3072E+00  0.3066E+00  0.4911E+04  0.4910E+04  0.2874E+03  0.1822E+03  0.0000E+00  0.0000E+00  0.0000E+00  0.0000E+00  0.0000E+00  0.0000E+00  0.0000E+00  0.0000E+00  0.0000E+00  0.0000E+00  0.0000E+00  0.0000E+00  0.0000E+00  0.0000E+00  0.0000E+00  0.0000E+00  0.0000E+00  0.2431E+02  0.4788E+01  0.0000E+00  0.0000E+00
REACH    2        0     8  0.1150E+00  0.1620E-01  0.1620E-01  0.8559E-06  0.0000E+00  0.2106E+02  0.2106E+02  0.1021E+03  0.2168E+02  0.2168E+02  0.4747E+01  0.4746E+01  0.2440E+01  0.2440E+01  0.0000E+00  0.1993E-02  0.0000E+00  0.0000E+00  0.4921E-01  0.4985E-01  0.3171E+00  0.3154E+00  0.4821E+04  0.4817E+04  0.2679E+03  0.1716E+03  0.0000E+00  0.0000E+00  0.0000E+00  0.0000E+00  0.0000E+00  0.0000E+00  0.0000E+00  0.0000E+00  0.0000E+00  0.0000E+00  0.0000E+00  0.0000E+00  0.0000E+00  0.0000E+00  0.0000E+00  0.0000E+00  0.0000E+00  0.2412E+02  0.4796E+01  0.0000E+00  0.0000E+00
REACH    3        0     8  0.4850E+00  0.6783E-01  0.6782E-01  0.1592E-04  0.0000E+00  0.6976E+02  0.5438E+02  0.1819E+03  0.8424E+02  0.8419E+02  0.1838E+02  0.1836E+02  0.1038E+02  0.1038E+02  0.2866E-02  0.8597E-02  0.0000E+00  0.1363E-06  0.3422E+00  0.3564E+00  0.1224E+01  0.1200E+01  0.1589E+05  0.1582E+05  0.9358E+03  0.7261E+03  0.0000E+00  0.0000E+00  0.0000E+00  0.0000E+00  0.0000E+00  0.0000E+00  0.0000E+00  0.0000E+00  0.0000E+00  0.0000E+00  0.0000E+00  0.0000E+00  0.0000E+00  0.0000E+00  0.0000E+00  0.0000E+00  0.0000E+00  0.9457E+02  0.1871E+02  0.0000E+00  0.0000E+00
REACH    1        0     9  0.1220E+00  0.4563E-02  0.4563E-02  0.3444E-06  0.0000E+00  0.6439E+01  0.6439E+01  0.8755E+02  0.4430E+01  0.4430E+01  0.9720E+00  0.9719E+00  0.6047E+00  0.6046E+00  0.0000E+00  0.2301E-03  0.0000E+00  0.0000E+00  0.5711E-02  0.5765E-02  0.3436E-01  0.3428E-01  0.9670E+03  0.9667E+03  0.8295E+02  0.5068E+02  0.0000E+00  0.0000E+00  0.0000E+00  0.0000E+00  0.0000E+00  0.0000E+00  0.0000E+00  0.0000E+00  0.0000E+00  0.0000E+00  0.0000E+00  0.0000E+00  0.0000E+00  0.0000E+00  0.0000E+00  0.0000E+00  0.0000E+00  0.5035E+01  0.9777E+00  0.0000E+00  0.0000E+00
REACH    2        0     9  0.1150E+00  0.4323E-02  0.4323E-02  0.6486E-06  0.0000E+00  0.6248E+01  0.6248E+01  0.8873E+02  0.4659E+01  0.4659E+01  0.1022E+01  0.1022E+01  0.5513E+00  0.5512E+00  0.0000E+00  0.4725E-03  0.0000E+00  0.0000E+00  0.4826E-02  0.4929E-02  0.3722E-01  0.3703E-01  0.9614E+03  0.9608E+03  0.7735E+02  0.4732E+02  0.0000E+00  0.0000E+00  0.0000E+00  0.0000E+00  0.0000E+00  0.0000E+00  0.0000E+00  0.0000E+00  0.0000E+00  0.0000E+00  0.0000E+00  0.0000E+00  0.0000E+00  0.0000E+00  0.0000E+00  0.0000E+00  0.0000E+00  0.5211E+01  0.1027E+01  0.0000E+00  0.0000E+00
REACH    3        0     9  0.4850E+00  0.1818E-01  0.1817E-01  0.1394E-04  0.0000E+00  0.2058E+02  0.1121E+02  0.1259E+03  0.1834E+02  0.1833E+02  0.4011E+01  0.4007E+01  0.2382E+01  0.2380E+01  0.7026E-03  0.2104E-02  0.0000E+00  0.7310E-06  0.3448E-01  0.3731E-01  0.1470E+00  0.1432E+00  0.3237E+04  0.3225E+04  0.2670E+03  0.2043E+03  0.0000E+00  0.0000E+00  0.0000E+00  0.0000E+00  0.0000E+00  0.0000E+00  0.0000E+00  0.0000E+00  0.0000E+00  0.0000E+00  0.0000E+00  0.0000E+00  0.0000E+00  0.0000E+00  0.0000E+00  0.0000E+00  0.0000E+00  0.2071E+02  0.4045E+01  0.0000E+00  0.0000E+00
REACH    1        0    10  0.1220E+00  0.6678E-02  0.6677E-02  0.3893E-06  0.0000E+00  0.3173E+02  0.3173E+02  0.3024E+03  0.1865E+02  0.1865E+02  0.4100E+01  0.4099E+01  0.1335E+01  0.1335E+01  0.0000E+00  0.7536E-03  0.0000E+00  0.0000E+00  0.1641E-01  0.1665E-01  0.1877E+00  0.1872E+00  0.4711E+04  0.4709E+04  0.1013E+03  0.4287E+02  0.0000E+00  0.0000E+00  0.0000E+00  0.0000E+00  0.0000E+00  0.0000E+00  0.0000E+00  0.0000E+00  0.0000E+00  0.0000E+00  0.0000E+00  0.0000E+00  0.0000E+00  0.0000E+00  0.0000E+00  0.0000E+00  0.0000E+00  0.1999E+02  0.4116E+01  0.0000E+00  0.0000E+00
REACH    2        0    10  0.1150E+00  0.6366E-02  0.6366E-02  0.8389E-06  0.0000E+00  0.3071E+02  0.3071E+02  0.3048E+03  0.1915E+02  0.1915E+02  0.4211E+01  0.4210E+01  0.1223E+01  0.1223E+01  0.0000E+00  0.1637E-02  0.0000E+00  0.0000E+00  0.1345E-01  0.1397E-01  0.2002E+00  0.1990E+00  0.4669E+04  0.4665E+04  0.9406E+02  0.4008E+02  0.0000E+00  0.0000E+00  0.0000E+00  0.0000E+00  0.0000E+00  0.0000E+00  0.0000E+00  0.0000E+00  0.0000E+00  0.0000E+00  0.0000E+00  0.0000E+00  0.0000E+00  0.0000E+00  0.0000E+00  0.0000E+00  0.0000E+00  0.2038E+02  0.4224E+01  0.0000E+00  0.0000E+00
REACH    3        0    10  0.4850E+00  0.2653E-01  0.2652E-01  0.1506E-04  0.0000E+00  0.1013E+03  0.2266E+02  0.1153E+03  0.7702E+02  0.7698E+02  0.1688E+02  0.1686E+02  0.5395E+01  0.5392E+01  0.2391E-02  0.7164E-02  0.0000E+00  0.2768E-05  0.9056E-01  0.1010E+00  0.8007E+00  0.7843E+00  0.1578E+05  0.1572E+05  0.2891E+03  0.1700E+03  0.0000E+00  0.0000E+00  0.0000E+00  0.0000E+00  0.0000E+00  0.0000E+00  0.0000E+00  0.0000E+00  0.0000E+00  0.0000E+00  0.0000E+00  0.0000E+00  0.0000E+00  0.0000E+00  0.0000E+00  0.0000E+00  0.0000E+00  0.8238E+02  0.1696E+02  0.0000E+00  0.0000E+00
REACH    1        0    11  0.1220E+00  0.5077E-02  0.5077E-02  0.3060E-06  0.0000E+00  0.2951E+02  0.2951E+02  0.3316E+03  0.1422E+02  0.1421E+02  0.3128E+01  0.3128E+01  0.1155E+01  0.1155E+01  0.0000E+00  0.5211E-03  0.0000E+00  0.0000E+00  0.7514E-02  0.7676E-02  0.9438E-01  0.9415E-01  0.3170E+04  0.3169E+04  0.8573E+02  0.4353E+02  0.0000E+00  0.0000E+00  0.0000E+00  0.0000E+00  0.0000E+00  0.0000E+00  0.0000E+00  0.0000E+00  0.0000E+00  0.0000E+00  0.0000E+00  0.0000E+00  0.0000E+00  0.0000E+00  0.0000E+00  0.0000E+00  0.0000E+00  0.1537E+02  0.3135E+01  0.0000E+00  0.0000E+00
REACH    2        0    11  0.1150E+00  0.4836E-02  0.4836E-02  0.6554E-06  0.0000E+00  0.2854E+02  0.2854E+02  0.3350E+03  0.1441E+02  0.1440E+02  0.3171E+01  0.3171E+01  0.1061E+01  0.1061E+01  0.0000E+00  0.1043E-02  0.0000E+00  0.0000E+00  0.5829E-02  0.6139E-02  0.1012E+00  0.1006E+00  0.3140E+04  0.3139E+04  0.8034E+02  0.4112E+02  0.0000E+00  0.0000E+00  0.0000E+00  0.0000E+00  0.0000E+00  0.0000E+00  0.0000E+00  0.0000E+00  0.0000E+00  0.0000E+00  0.0000E+00  0.0000E+00  0.0000E+00  0.0000E+00  0.0000E+00  0.0000E+00  0.0000E+00  0.1547E+02  0.3177E+01  0.0000E+00  0.0000E+00
REACH    3        0    11  0.4850E+00  0.2023E-01  0.2021E-01  0.1411E-04  0.0000E+00  0.9433E+02  0.1407E+02  0.1197E+03  0.5957E+02  0.5954E+02  0.1306E+02  0.1305E+02  0.4834E+01  0.4832E+01  0.1564E-02  0.4686E-02  0.0000E+00  0.1772E-05  0.4750E-01  0.5597E-01  0.4249E+00  0.4137E+00  0.1066E+05  0.1062E+05  0.2588E+03  0.1718E+03  0.0000E+00  0.0000E+00  0.0000E+00  0.0000E+00  0.0000E+00  0.0000E+00  0.0000E+00  0.0000E+00  0.0000E+00  0.0000E+00  0.0000E+00  0.0000E+00  0.0000E+00  0.0000E+00  0.0000E+00  0.0000E+00  0.0000E+00  0.6437E+02  0.1311E+02  0.0000E+00  0.0000E+00
REACH    1        0    12  0.1220E+00  0.9365E-02  0.9365E-02  0.4052E-06  0.0000E+00  0.1027E+03  0.1027E+03  0.9128E+03  0.3960E+02  0.3960E+02  0.8717E+01  0.8716E+01  0.2788E+01  0.2788E+01  0.0000E+00  0.1602E-02  0.0000E+00  0.0000E+00  0.1344E-01  0.1399E-01  0.2942E+00  0.2934E+00  0.1012E+05  0.1012E+05  0.1655E+03  0.8417E+02  0.0000E+00  0.0000E+00  0.0000E+00  0.0000E+00  0.0000E+00  0.0000E+00  0.0000E+00  0.0000E+00  0.0000E+00  0.0000E+00  0.0000E+00  0.0000E+00  0.0000E+00  0.0000E+00  0.0000E+00  0.0000E+00  0.0000E+00  0.4239E+02  0.8730E+01  0.0000E+00  0.0000E+00
REACH    2        0    12  0.1150E+00  0.8882E-02  0.8881E-02  0.1007E-05  0.0000E+00  0.9925E+02  0.9925E+02  0.9242E+03  0.3990E+02  0.3990E+02  0.8790E+01  0.8788E+01  0.2496E+01  0.2496E+01  0.0000E+00  0.2663E-02  0.0000E+00  0.0000E+00  0.9525E-02  0.1042E-01  0.3158E+00  0.3143E+00  0.1002E+05  0.1001E+05  0.1546E+03  0.7915E+02  0.0000E+00  0.0000E+00  0.0000E+00  0.0000E+00  0.0000E+00  0.0000E+00  0.0000E+00  0.0000E+00  0.0000E+00  0.0000E+00  0.0000E+00  0.0000E+00  0.0000E+00  0.0000E+00  0.0000E+00  0.0000E+00  0.0000E+00  0.4240E+02  0.8799E+01  0.0000E+00  0.0000E+00
REACH    3        0    12  0.4850E+00  0.3710E-01  0.3709E-01  0.1393E-04  0.0000E+00  0.3281E+03  0.2959E+02  0.1715E+03  0.1692E+03  0.1691E+03  0.3711E+02  0.3708E+02  0.1165E+02  0.1165E+02  0.4265E-02  0.1279E-01  0.0000E+00  0.1727E-06  0.9867E-01  0.1214E+00  0.1348E+01  0.1318E+01  0.3402E+05  0.3390E+05  0.4954E+03  0.3330E+03  0.0000E+00  0.0000E+00  0.0000E+00  0.0000E+00  0.0000E+00  0.0000E+00  0.0000E+00  0.0000E+00  0.0000E+00  0.0000E+00  0.0000E+00  0.0000E+00  0.0000E+00  0.0000E+00  0.0000E+00  0.0000E+00  0.0000E+00  0.1808E+03  0.3720E+02  0.0000E+00  0.0000E+00
REACH    1        0  2013  0.1220E+00  0.8400E-02  0.8400E-02  0.3245E-06  0.0000E+00  0.5970E+03  0.5970E+03  0.3817E+03  0.5289E+03  0.5288E+03  0.1165E+03  0.1165E+03  0.2193E+02  0.2193E+02  0.0000E+00  0.2460E-01  0.0000E+00  0.0000E+00  0.2838E+00  0.2924E+00  0.5546E+01  0.5529E+01  0.6993E+05  0.6990E+05  0.1719E+04  0.1053E+04  0.0000E+00  0.0000E+00  0.0000E+00  0.0000E+00  0.0000E+00  0.0000E+00  0.0000E+00  0.0000E+00  0.0000E+00  0.0000E+00  0.0000E+00  0.0000E+00  0.0000E+00  0.0000E+00  0.0000E+00  0.0000E+00  0.0000E+00  0.5508E+03  0.1168E+03  0.0000E+00  0.0000E+00
REACH    2        0  2013  0.1150E+00  0.7962E-02  0.7961E-02  0.7037E-06  0.0000E+00  0.5758E+03  0.5758E+03  0.3867E+03  0.5275E+03  0.5274E+03  0.1163E+03  0.1163E+03  0.1957E+02  0.1957E+02  0.0000E+00  0.4779E-01  0.0000E+00  0.0000E+00  0.2315E+00  0.2481E+00  0.5706E+01  0.5670E+01  0.6905E+05  0.6899E+05  0.1602E+04  0.9899E+03  0.0000E+00  0.0000E+00  0.0000E+00  0.0000E+00  0.0000E+00  0.0000E+00  0.0000E+00  0.0000E+00  0.0000E+00  0.0000E+00  0.0000E+00  0.0000E+00  0.0000E+00  0.0000E+00  0.0000E+00  0.0000E+00  0.0000E+00  0.5470E+03  0.1165E+03  0.0000E+00  0.0000E+00
REACH    3        0  2013  0.4850E+00  0.3333E-01  0.3332E-01  0.1270E-04  0.0000E+00  0.1904E+04  0.3083E+03  0.1371E+03  0.2004E+04  0.2002E+04  0.4408E+03  0.4404E+03  0.9286E+02  0.9282E+02  0.7238E-01  0.2171E+00  0.0000E+00  0.1813E-04  0.1586E+01  0.1898E+01  0.2141E+02  0.2095E+02  0.2335E+06  0.2325E+06  0.5536E+04  0.4211E+04  0.0000E+00  0.0000E+00  0.0000E+00  0.0000E+00  0.0000E+00  0.0000E+00  0.0000E+00  0.0000E+00  0.0000E+00  0.0000E+00  0.0000E+00  0.0000E+00  0.0000E+00  0.0000E+00  0.0000E+00  0.0000E+00  0.0000E+00  0.2095E+04  0.4423E+03  0.0000E+00  0.0000E+00
REACH    1        0     1  0.1220E+00  0.2056E-01  0.2056E-01  0.6365E-06  0.0000E+00  0.2202E+03  0.2202E+03  0.1440E+04  0.3649E+03  0.3649E+03  0.8045E+02  0.8045E+02  0.4862E+01  0.4862E+01  0.0000E+00  0.1433E-01  0.0000E+00  0.0000E+00  0.1129E+00  0.1181E+00  0.3899E+01  0.3889E+01  0.2436E+05  0.2435E+05  0.3530E+03  0.2223E+03  0.0000E+00  0.0000E+00  0.0000E+00  0.0000E+00  0.0000E+00  0.0000E+00  0.0000E+00  0.0000E+00  0.0000E+00  0.0000E+00  0.0000E+00  0.0000E+00  0.0000E+00  0.0000E+00  0.0000E+00  0.0000E+00  0.0000E+00  0.3698E+03  0.8056E+02  0.0000E+00  0.0000E+00
REACH    2        0     1  0.1150E+00  0.1944E-01  0.1943E-01  0.1140E-05  0.0000E+00  0.2123E+03  0.2123E+03  0.1461E+04  0.3613E+03  0.3612E+03  0.7970E+02  0.7969E+02  0.4332E+01  0.4332E+01  0.0000E+00  0.2924E-01  0.0000E+00  0.0000E+00  0.9898E-01  0.1096E+00  0.3944E+01  0.3922E+01  0.2404E+05  0.2402E+05  0.3280E+03  0.2088E+03  0.0000E+00  0.0000E+00  0.0000E+00  0.0000E+00  0.0000E+00  0.0000E+00  0.0000E+00  0.0000E+00  0.0000E+00  0.0000E+00  0.0000E+00  0.0000E+00  0.0000E+00  0.0000E+00  0.0000E+00  0.0000E+00  0.0000E+00  0.3656E+03  0.7980E+02  0.0000E+00  0.0000E+00
REACH    3        0     1  0.4850E+00  0.8142E-01  0.8140E-01  0.1728E-04  0.0000E+00  0.7028E+03  0.7699E+02  0.2193E+03  0.1350E+04  0.1349E+04  0.2973E+03  0.2971E+03  0.2009E+02  0.2008E+02  0.4357E-01  0.1307E+00  0.0000E+00  0.0000E+00  0.5953E+00  0.7885E+00  0.1447E+02  0.1418E+02  0.8168E+05  0.8135E+05  0.1143E+04  0.8738E+03  0.0000E+00  0.0000E+00  0.0000E+00  0.0000E+00  0.0000E+00  0.0000E+00  0.0000E+00  0.0000E+00  0.0000E+00  0.0000E+00  0.0000E+00  0.0000E+00  0.0000E+00  0.0000E+00  0.0000E+00  0.0000E+00  0.0000E+00  0.1369E+04  0.2979E+03  0.0000E+00  0.0000E+00
REACH    1        0     2  0.1220E+00  0.1290E-01  0.1290E-01  0.4950E-06  0.0000E+00  0.7863E+01  0.7863E+01  0.2156E+03  0.8778E+01  0.8777E+01  0.1940E+01  0.1940E+01  0.2420E+01  0.2420E+01  0.0000E+00  0.4195E-03  0.0000E+00  0.0000E+00  0.9375E-02  0.9498E-02  0.2993E-01  0.2981E-01  0.6173E+03  0.6170E+03  0.2007E+03  0.1139E+03  0.0000E+00  0.0000E+00  0.0000E+00  0.0000E+00  0.0000E+00  0.0000E+00  0.0000E+00  0.0000E+00  0.0000E+00  0.0000E+00  0.0000E+00  0.0000E+00  0.0000E+00  0.0000E+00  0.0000E+00  0.0000E+00  0.0000E+00  0.1120E+02  0.1949E+01  0.0000E+00  0.0000E+00
REACH    2        0     2  0.1150E+00  0.1218E-01  0.1218E-01  0.1240E-05  0.0000E+00  0.7645E+01  0.7645E+01  0.2183E+03  0.9138E+01  0.9136E+01  0.2020E+01  0.2019E+01  0.8867E-01  0.8866E-01  0.0000E+00  0.9461E-03  0.0000E+00  0.0000E+00  0.4957E-02  0.5231E-02  0.3068E-01  0.3040E-01  0.6096E+03  0.6091E+03  0.1858E+03  0.1057E+03  0.0000E+00  0.0000E+00  0.0000E+00  0.0000E+00  0.0000E+00  0.0000E+00  0.0000E+00  0.0000E+00  0.0000E+00  0.0000E+00  0.0000E+00  0.0000E+00  0.0000E+00  0.0000E+00  0.0000E+00  0.0000E+00  0.0000E+00  0.9226E+01  0.2025E+01  0.0000E+00  0.0000E+00
REACH    3        0     2  0.4850E+00  0.5127E-01  0.5125E-01  0.1629E-04  0.0000E+00  0.2526E+02  0.4027E+02  0.1980E+03  0.3572E+02  0.3569E+02  0.7875E+01  0.7866E+01  0.3072E+02  0.3071E+02  0.1366E-02  0.4094E-02  0.0000E+00  0.4946E-06  0.7663E-01  0.8338E-01  0.3171E+00  0.3037E+00  0.2066E+04  0.2055E+04  0.6394E+03  0.4800E+03  0.0000E+00  0.0000E+00  0.0000E+00  0.0000E+00  0.0000E+00  0.0000E+00  0.0000E+00  0.0000E+00  0.0000E+00  0.0000E+00  0.0000E+00  0.0000E+00  0.0000E+00  0.0000E+00  0.0000E+00  0.0000E+00  0.0000E+00  0.6641E+02  0.7950E+01  0.0000E+00  0.0000E+00
REACH    1        0     3  0.1220E+00  0.6188E-02  0.6188E-02  0.3376E-06  0.0000E+00  0.3833E+00  0.3833E+00  0.3763E+01  0.4669E+00  0.4669E+00  0.1015E+00  0.1015E+00  0.5429E+00  0.5429E+00  0.0000E+00  0.1157E-03  0.0000E+00  0.0000E+00  0.5267E-02  0.5280E-02  0.5771E-02  0.5758E-02  0.7994E+02  0.7992E+02  0.1117E+03  0.8307E+02  0.0000E+00  0.0000E+00  0.0000E+00  0.0000E+00  0.0000E+00  0.0000E+00  0.0000E+00  0.0000E+00  0.0000E+00  0.0000E+00  0.0000E+00  0.0000E+00  0.0000E+00  0.0000E+00  0.0000E+00  0.0000E+00  0.0000E+00  0.1010E+01  0.1067E+00  0.0000E+00  0.0000E+00
REACH    2        0     3  0.1150E+00  0.5820E-02  0.5819E-02  0.8755E-06  0.0000E+00  0.3682E+00  0.3682E+00  0.3775E+01  0.4482E+00  0.4481E+00  0.9772E-01  0.9770E-01  0.2630E-01  0.2629E-01  0.0000E+00  0.2466E-03  0.0000E+00  0.0000E+00  0.3218E-02  0.3231E-02  0.4843E-02  0.4818E-02  0.7742E+02  0.7737E+02  0.1031E+03  0.7712E+02  0.0000E+00  0.0000E+00  0.0000E+00  0.0000E+00  0.0000E+00  0.0000E+00  0.0000E+00  0.0000E+00  0.0000E+00  0.0000E+00  0.0000E+00  0.0000E+00  0.0000E+00  0.0000E+00  0.0000E+00  0.0000E+00  0.0000E+00  0.4746E+00  0.1009E+00  0.0000E+00  0.0000E+00
REACH    3        0     3  0.4850E+00  0.2462E-01  0.2461E-01  0.1545E-04  0.0000E+00  0.1245E+01  0.1859E+02  0.1389E+03  0.2001E+01  0.2000E+01  0.4300E+00  0.4296E+00  0.4721E+01  0.4718E+01  0.3623E-03  0.1084E-02  0.0000E+00  0.1339E-06  0.3467E-01  0.3523E-01  0.4956E-01  0.4676E-01  0.2607E+03  0.2598E+03  0.3957E+03  0.3400E+03  0.0000E+00  0.0000E+00  0.0000E+00  0.0000E+00  0.0000E+00  0.0000E+00  0.0000E+00  0.0000E+00  0.0000E+00  0.0000E+00  0.0000E+00  0.0000E+00  0.0000E+00  0.0000E+00  0.0000E+00  0.0000E+00  0.0000E+00  0.6719E+01  0.4649E+00  0.0000E+00  0.0000E+00
REACH    1        0     4  0.1220E+00  0.1413E-01  0.1413E-01  0.5421E-06  0.0000E+00  0.4435E+00  0.4435E+00  0.5046E+01  0.5297E+00  0.5296E+00  0.1140E+00  0.1140E+00  0.6166E+00  0.6166E+00  0.0000E+00  0.1308E-03  0.0000E+00  0.0000E+00  0.1343E-01  0.1344E-01  0.2740E-02  0.2731E-02  0.6087E+02  0.6085E+02  0.2745E+03  0.2271E+03  0.0000E+00  0.0000E+00  0.0000E+00  0.0000E+00  0.0000E+00  0.0000E+00  0.0000E+00  0.0000E+00  0.0000E+00  0.0000E+00  0.0000E+00  0.0000E+00  0.0000E+00  0.0000E+00  0.0000E+00  0.0000E+00  0.0000E+00  0.1146E+01  0.1275E+00  0.0000E+00  0.0000E+00
REACH    2        0     4  0.1150E+00  0.1342E-01  0.1342E-01  0.8995E-06  0.0000E+00  0.4258E+00  0.4258E+00  0.5085E+01  0.5090E+00  0.5089E+00  0.1099E+00  0.1099E+00  0.5733E+00  0.5732E+00  0.0000E+00  0.2631E-03  0.0000E+00  0.0000E+00  0.9603E-02  0.9626E-02  0.2730E-02  0.2716E-02  0.5885E+02  0.5881E+02  0.2592E+03  0.2147E+03  0.0000E+00  0.0000E+00  0.0000E+00  0.0000E+00  0.0000E+00  0.0000E+00  0.0000E+00  0.0000E+00  0.0000E+00  0.0000E+00  0.0000E+00  0.0000E+00  0.0000E+00  0.0000E+00  0.0000E+00  0.0000E+00  0.0000E+00  0.1082E+01  0.1196E+00  0.0000E+00  0.0000E+00
REACH    3        0     4  0.4850E+00  0.5610E-01  0.5608E-01  0.1383E-04  0.0000E+00  0.1446E+01  0.4465E+02  0.2105E+03  0.2313E+01  0.2312E+01  0.4922E+00  0.4918E+00  0.2554E+01  0.2554E+01  0.3938E-03  0.1180E-02  0.0000E+00  0.1885E-06  0.8889E-01  0.8962E-01  0.1426E-01  0.1388E-01  0.1999E+03  0.1992E+03  0.1011E+04  0.9361E+03  0.0000E+00  0.0000E+00  0.0000E+00  0.0000E+00  0.0000E+00  0.0000E+00  0.0000E+00  0.0000E+00  0.0000E+00  0.0000E+00  0.0000E+00  0.0000E+00  0.0000E+00  0.0000E+00  0.0000E+00  0.0000E+00  0.0000E+00  0.4867E+01  0.5815E+00  0.0000E+00  0.0000E+00
REACH    1        0     5  0.1220E+00  0.7055E-02  0.7054E-02  0.3313E-06  0.0000E+00  0.5058E+00  0.5058E+00  0.4067E+01  0.5430E+00  0.5429E+00  0.1172E+00  0.1172E+00  0.1637E+01  0.1637E+01  0.0000E+00  0.1316E-03  0.0000E+00  0.0000E+00  0.1634E-01  0.1635E-01  0.6303E-02  0.6282E-02  0.1012E+03  0.1012E+03  0.1264E+03  0.8987E+02  0.0000E+00  0.0000E+00  0.0000E+00  0.0000E+00  0.0000E+00  0.0000E+00  0.0000E+00  0.0000E+00  0.0000E+00  0.0000E+00  0.0000E+00  0.0000E+00  0.0000E+00  0.0000E+00  0.0000E+00  0.0000E+00  0.0000E+00  0.2180E+01  0.1336E+00  0.0000E+00  0.0000E+00
REACH    2        0     5  0.1150E+00  0.6669E-02  0.6668E-02  0.7149E-06  0.0000E+00  0.4872E+00  0.4872E+00  0.4089E+01  0.5333E+00  0.5332E+00  0.1154E+00  0.1153E+00  0.1541E+01  0.1541E+01  0.0000E+00  0.2622E-03  0.0000E+00  0.0000E+00  0.1426E-01  0.1428E-01  0.6445E-02  0.6406E-02  0.9811E+02  0.9803E+02  0.1171E+03  0.8392E+02  0.0000E+00  0.0000E+00  0.0000E+00  0.0000E+00  0.0000E+00  0.0000E+00  0.0000E+00  0.0000E+00  0.0000E+00  0.0000E+00  0.0000E+00  0.0000E+00  0.0000E+00  0.0000E+00  0.0000E+00  0.0000E+00  0.0000E+00  0.2074E+01  0.1296E+00  0.0000E+00  0.0000E+00
REACH    3        0     5  0.4850E+00  0.2790E-01  0.2788E-01  0.1308E-04  0.0000E+00  0.1623E+01  0.2214E+02  0.1393E+03  0.2118E+01  0.2117E+01  0.4551E+00  0.4548E+00  0.6430E+01  0.6428E+01  0.3939E-03  0.1179E-02  0.0000E+00  0.5966E-06  0.7925E-01  0.7978E-01  0.2586E-01  0.2533E-01  0.3253E+03  0.3242E+03  0.4384E+03  0.3688E+03  0.0000E+00  0.0000E+00  0.0000E+00  0.0000E+00  0.0000E+00  0.0000E+00  0.0000E+00  0.0000E+00  0.0000E+00  0.0000E+00  0.0000E+00  0.0000E+00  0.0000E+00  0.0000E+00  0.0000E+00  0.0000E+00  0.0000E+00  0.8546E+01  0.5346E+00  0.0000E+00  0.0000E+00
REACH    1        0     6  0.1220E+00  0.6193E-02  0.6193E-02  0.3592E-06  0.0000E+00  0.4277E+00  0.4277E+00  0.3755E+01  0.4969E+00  0.4969E+00  0.1074E+00  0.1074E+00  0.1399E+01  0.1399E+01  0.0000E+00  0.1167E-03  0.0000E+00  0.0000E+00  0.1399E-01  0.1400E-01  0.5790E-02  0.5774E-02  0.8807E+02  0.8803E+02  0.1113E+03  0.8665E+02  0.0000E+00  0.0000E+00  0.0000E+00  0.0000E+00  0.0000E+00  0.0000E+00  0.0000E+00  0.0000E+00  0.0000E+00  0.0000E+00  0.0000E+00  0.0000E+00  0.0000E+00  0.0000E+00  0.0000E+00  0.0000E+00  0.0000E+00  0.1896E+01  0.1214E+00  0.0000E+00  0.0000E+00
REACH    2        0     6  0.1150E+00  0.5846E-02  0.5845E-02  0.7780E-06  0.0000E+00  0.4124E+00  0.4124E+00  0.3811E+01  0.4922E+00  0.4921E+00  0.1066E+00  0.1066E+00  0.1283E+01  0.1283E+01  0.0000E+00  0.2533E-03  0.0000E+00  0.0000E+00  0.1241E-01  0.1243E-01  0.5912E-02  0.5873E-02  0.8538E+02  0.8530E+02  0.1032E+03  0.8114E+02  0.0000E+00  0.0000E+00  0.0000E+00  0.0000E+00  0.0000E+00  0.0000E+00  0.0000E+00  0.0000E+00  0.0000E+00  0.0000E+00  0.0000E+00  0.0000E+00  0.0000E+00  0.0000E+00  0.0000E+00  0.0000E+00  0.0000E+00  0.1775E+01  0.1190E+00  0.0000E+00  0.0000E+00
REACH    3        0     6  0.4850E+00  0.2468E-01  0.2467E-01  0.1331E-04  0.0000E+00  0.1373E+01  0.1782E+02  0.1326E+03  0.1947E+01  0.1946E+01  0.4186E+00  0.4183E+00  0.5708E+01  0.5706E+01  0.3700E-03  0.1108E-02  0.0000E+00  0.3038E-06  0.6878E-01  0.6930E-01  0.2416E-01  0.2353E-01  0.2829E+03  0.2820E+03  0.4022E+03  0.3527E+03  0.0000E+00  0.0000E+00  0.0000E+00  0.0000E+00  0.0000E+00  0.0000E+00  0.0000E+00  0.0000E+00  0.0000E+00  0.0000E+00  0.0000E+00  0.0000E+00  0.0000E+00  0.0000E+00  0.0000E+00  0.0000E+00  0.0000E+00  0.7653E+01  0.4876E+00  0.0000E+00  0.0000E+00
REACH    1        0     7  0.1220E+00  0.2842E-01  0.2842E-01  0.3427E-06  0.0000E+00  0.2563E+02  0.2563E+02  0.4189E+02  0.2786E+02  0.2785E+02  0.6049E+01  0.6049E+01  0.3600E+01  0.3600E+01  0.0000E+00  0.7578E-03  0.0000E+00  0.0000E+00  0.2368E+00  0.2370E+00  0.7824E+00  0.7816E+00  0.8278E+04  0.8276E+04  0.2356E+03  0.1198E+03  0.0000E+00  0.0000E+00  0.0000E+00  0.0000E+00  0.0000E+00  0.0000E+00  0.0000E+00  0.0000E+00  0.0000E+00  0.0000E+00  0.0000E+00  0.0000E+00  0.0000E+00  0.0000E+00  0.0000E+00  0.0000E+00  0.0000E+00  0.3146E+02  0.6286E+01  0.0000E+00  0.0000E+00
REACH    2        0     7  0.1150E+00  0.2693E-01  0.2693E-01  0.7419E-06  0.0000E+00  0.2453E+02  0.2453E+02  0.4226E+02  0.2682E+02  0.2682E+02  0.5834E+01  0.5834E+01  0.3305E+01  0.3305E+01  0.0000E+00  0.1675E-02  0.0000E+00  0.0000E+00  0.1881E+00  0.1887E+00  0.7647E+00  0.7628E+00  0.7961E+04  0.7957E+04  0.2117E+03  0.1121E+03  0.0000E+00  0.0000E+00  0.0000E+00  0.0000E+00  0.0000E+00  0.0000E+00  0.0000E+00  0.0000E+00  0.0000E+00  0.0000E+00  0.0000E+00  0.0000E+00  0.0000E+00  0.0000E+00  0.0000E+00  0.0000E+00  0.0000E+00  0.3012E+02  0.6022E+01  0.0000E+00  0.0000E+00
REACH    3        0     7  0.4850E+00  0.1129E+00  0.1129E+00  0.1418E-04  0.0000E+00  0.8168E+02  0.1195E+03  0.1513E+03  0.1051E+03  0.1051E+03  0.2275E+02  0.2274E+02  0.1424E+02  0.1424E+02  0.2433E-02  0.7294E-02  0.0000E+00  0.1532E-05  0.1148E+01  0.1160E+01  0.2973E+01  0.2942E+01  0.2641E+05  0.2633E+05  0.7462E+03  0.4762E+03  0.0000E+00  0.0000E+00  0.0000E+00  0.0000E+00  0.0000E+00  0.0000E+00  0.0000E+00  0.0000E+00  0.0000E+00  0.0000E+00  0.0000E+00  0.0000E+00  0.0000E+00  0.0000E+00  0.0000E+00  0.0000E+00  0.0000E+00  0.1194E+03  0.2390E+02  0.0000E+00  0.0000E+00
REACH    1        0     8  0.1220E+00  0.3758E-02  0.3758E-02  0.2528E-06  0.0000E+00  0.3460E+00  0.3460E+00  0.6407E+01  0.3088E+00  0.3088E+00  0.6734E-01  0.6733E-01  0.8841E+00  0.8841E+00  0.0000E+00  0.1001E-03  0.0000E+00  0.0000E+00  0.1657E-02  0.1666E-02  0.2835E-03  0.2826E-03  0.1942E+02  0.1941E+02  0.8210E+02  0.6631E+02  0.0000E+00  0.0000E+00  0.0000E+00  0.0000E+00  0.0000E+00  0.0000E+00  0.0000E+00  0.0000E+00  0.0000E+00  0.0000E+00  0.0000E+00  0.0000E+00  0.0000E+00  0.0000E+00  0.0000E+00  0.0000E+00  0.0000E+00  0.1193E+01  0.6900E-01  0.0000E+00  0.0000E+00
REACH    2        0     8  0.1150E+00  0.3469E-02  0.3469E-02  0.5428E-06  0.0000E+00  0.3372E+00  0.3372E+00  0.6619E+01  0.3255E+00  0.3254E+00  0.7093E-01  0.7091E-01  0.8420E+00  0.8420E+00  0.0000E+00  0.2168E-03  0.0000E+00  0.0000E+00  0.1030E-02  0.1041E-02  0.3005E-03  0.2985E-03  0.1896E+02  0.1894E+02  0.7539E+02  0.6067E+02  0.0000E+00  0.0000E+00  0.0000E+00  0.0000E+00  0.0000E+00  0.0000E+00  0.0000E+00  0.0000E+00  0.0000E+00  0.0000E+00  0.0000E+00  0.0000E+00  0.0000E+00  0.0000E+00  0.0000E+00  0.0000E+00  0.0000E+00  0.1168E+01  0.7196E-01  0.0000E+00  0.0000E+00
REACH    3        0     8  0.4850E+00  0.1482E-01  0.1480E-01  0.1204E-04  0.0000E+00  0.1110E+01  0.8997E+01  0.1080E+03  0.1220E+01  0.1220E+01  0.2650E+00  0.2648E+00  0.3450E+01  0.3449E+01  0.3169E-03  0.9481E-03  0.0000E+00  0.5720E-06  0.7589E-02  0.8002E-02  0.1524E-02  0.1433E-02  0.6284E+02  0.6258E+02  0.2931E+03  0.2672E+03  0.0000E+00  0.0000E+00  0.0000E+00  0.0000E+00  0.0000E+00  0.0000E+00  0.0000E+00  0.0000E+00  0.0000E+00  0.0000E+00  0.0000E+00  0.0000E+00  0.0000E+00  0.0000E+00  0.0000E+00  0.0000E+00  0.0000E+00  0.4669E+01  0.2728E+00  0.0000E+00  0.0000E+00
REACH    1        0     9  0.1220E+00  0.2710E-02  0.2710E-02  0.2598E-06  0.0000E+00  0.2567E+01  0.2567E+01  0.3993E+02  0.2203E+01  0.2203E+01  0.4817E+00  0.4817E+00  0.6974E+00  0.6974E+00  0.0000E+00  0.1611E-03  0.0000E+00  0.0000E+00  0.2916E-02  0.2944E-02  0.9410E-02  0.9383E-02  0.2977E+03  0.2977E+03  0.5063E+02  0.2890E+02  0.0000E+00  0.0000E+00  0.0000E+00  0.0000E+00  0.0000E+00  0.0000E+00  0.0000E+00  0.0000E+00  0.0000E+00  0.0000E+00  0.0000E+00  0.0000E+00  0.0000E+00  0.0000E+00  0.0000E+00  0.0000E+00  0.0000E+00  0.2901E+01  0.4846E+00  0.0000E+00  0.0000E+00
REACH    2        0     9  0.1150E+00  0.2567E-02  0.2567E-02  0.5653E-06  0.0000E+00  0.2491E+01  0.2491E+01  0.4031E+02  0.2318E+01  0.2318E+01  0.5065E+00  0.5065E+00  0.6602E+00  0.6601E+00  0.0000E+00  0.3646E-03  0.0000E+00  0.0000E+00  0.2681E-02  0.2745E-02  0.1015E-01  0.1008E-01  0.2961E+03  0.2959E+03  0.4730E+02  0.2689E+02  0.0000E+00  0.0000E+00  0.0000E+00  0.0000E+00  0.0000E+00  0.0000E+00  0.0000E+00  0.0000E+00  0.0000E+00  0.0000E+00  0.0000E+00  0.0000E+00  0.0000E+00  0.0000E+00  0.0000E+00  0.0000E+00  0.0000E+00  0.2978E+01  0.5092E+00  0.0000E+00  0.0000E+00
REACH    3        0     9  0.4850E+00  0.1074E-01  0.1072E-01  0.1244E-04  0.0000E+00  0.8212E+01  0.6373E+01  0.7968E+02  0.8787E+01  0.8782E+01  0.1916E+01  0.1914E+01  0.2728E+01  0.2726E+01  0.5257E-03  0.1569E-02  0.0000E+00  0.3426E-05  0.1646E-01  0.1796E-01  0.3938E-01  0.3813E-01  0.9870E+03  0.9830E+03  0.1578E+03  0.1156E+03  0.0000E+00  0.0000E+00  0.0000E+00  0.0000E+00  0.0000E+00  0.0000E+00  0.0000E+00  0.0000E+00  0.0000E+00  0.0000E+00  0.0000E+00  0.0000E+00  0.0000E+00  0.0000E+00  0.0000E+00  0.0000E+00  0.0000E+00  0.1151E+02  0.1932E+01  0.0000E+00  0.0000E+00
REACH    1        0    10  0.1220E+00  0.2216E-02  0.2216E-02  0.3176E-06  0.0000E+00  0.3688E+01  0.3688E+01  0.5064E+02  0.3086E+01  0.3086E+01  0.6753E+00  0.6753E+00  0.6100E+00  0.6099E+00  0.0000E+00  0.1852E-03  0.0000E+00  0.0000E+00  0.2894E-02  0.2932E-02  0.1033E-01  0.1030E-01  0.3408E+03  0.3407E+03  0.4171E+02  0.1732E+02  0.0000E+00  0.0000E+00  0.0000E+00  0.0000E+00  0.0000E+00  0.0000E+00  0.0000E+00  0.0000E+00  0.0000E+00  0.0000E+00  0.0000E+00  0.0000E+00  0.0000E+00  0.0000E+00  0.0000E+00  0.0000E+00  0.0000E+00  0.3696E+01  0.6782E+00  0.0000E+00  0.0000E+00
REACH    2        0    10  0.1150E+00  0.2117E-02  0.2116E-02  0.6872E-06  0.0000E+00  0.3576E+01  0.3576E+01  0.5111E+02  0.3226E+01  0.3226E+01  0.7057E+00  0.7056E+00  0.5725E+00  0.5724E+00  0.0000E+00  0.4152E-03  0.0000E+00  0.0000E+00  0.2666E-02  0.2747E-02  0.1113E-01  0.1106E-01  0.3381E+03  0.3379E+03  0.3919E+02  0.1631E+02  0.0000E+00  0.0000E+00  0.0000E+00  0.0000E+00  0.0000E+00  0.0000E+00  0.0000E+00  0.0000E+00  0.0000E+00  0.0000E+00  0.0000E+00  0.0000E+00  0.0000E+00  0.0000E+00  0.0000E+00  0.0000E+00  0.0000E+00  0.3798E+01  0.7084E+00  0.0000E+00  0.0000E+00
REACH    3        0    10  0.4850E+00  0.8722E-02  0.8707E-02  0.1529E-04  0.0000E+00  0.1180E+02  0.6049E+01  0.5509E+02  0.1249E+02  0.1248E+02  0.2724E+01  0.2722E+01  0.2386E+01  0.2383E+01  0.6004E-03  0.1710E-02  0.0000E+00  0.3379E-04  0.1625E-01  0.1817E-01  0.4506E-01  0.4360E-01  0.1142E+04  0.1137E+04  0.1159E+03  0.6755E+02  0.0000E+00  0.0000E+00  0.0000E+00  0.0000E+00  0.0000E+00  0.0000E+00  0.0000E+00  0.0000E+00  0.0000E+00  0.0000E+00  0.0000E+00  0.0000E+00  0.0000E+00  0.0000E+00  0.0000E+00  0.0000E+00  0.0000E+00  0.1486E+02  0.2740E+01  0.0000E+00  0.0000E+00
REACH    1        0    11  0.1220E+00  0.1062E-01  0.1062E-01  0.3841E-06  0.0000E+00  0.3964E+02  0.3964E+02  0.3520E+03  0.2846E+02  0.2846E+02  0.6229E+01  0.6228E+01  0.3823E+01  0.3822E+01  0.0000E+00  0.1315E-02  0.0000E+00  0.0000E+00  0.1635E-01  0.1679E-01  0.1823E+00  0.1817E+00  0.4325E+04  0.4323E+04  0.1861E+03  0.9208E+02  0.0000E+00  0.0000E+00  0.0000E+00  0.0000E+00  0.0000E+00  0.0000E+00  0.0000E+00  0.0000E+00  0.0000E+00  0.0000E+00  0.0000E+00  0.0000E+00  0.0000E+00  0.0000E+00  0.0000E+00  0.0000E+00  0.0000E+00  0.3228E+02  0.6245E+01  0.0000E+00  0.0000E+00
REACH    2        0    11  0.1150E+00  0.1009E-01  0.1009E-01  0.8379E-06  0.0000E+00  0.3823E+02  0.3823E+02  0.3561E+03  0.2867E+02  0.2867E+02  0.6278E+01  0.6277E+01  0.3614E+01  0.3614E+01  0.0000E+00  0.2975E-02  0.0000E+00  0.0000E+00  0.1397E-01  0.1498E-01  0.1927E+00  0.1913E+00  0.4274E+04  0.4270E+04  0.1741E+03  0.8665E+02  0.0000E+00  0.0000E+00  0.0000E+00  0.0000E+00  0.0000E+00  0.0000E+00  0.0000E+00  0.0000E+00  0.0000E+00  0.0000E+00  0.0000E+00  0.0000E+00  0.0000E+00  0.0000E+00  0.0000E+00  0.0000E+00  0.0000E+00  0.3229E+02  0.6292E+01  0.0000E+00  0.0000E+00
REACH    3        0    11  0.4850E+00  0.4213E-01  0.4212E-01  0.1330E-04  0.0000E+00  0.1265E+03  0.3362E+02  0.1885E+03  0.1146E+03  0.1146E+03  0.2500E+02  0.2499E+02  0.1513E+02  0.1512E+02  0.4290E-02  0.1287E-01  0.0000E+00  0.1969E-06  0.9708E-01  0.1112E+00  0.7698E+00  0.7546E+00  0.1449E+05  0.1444E+05  0.5542E+03  0.3630E+03  0.0000E+00  0.0000E+00  0.0000E+00  0.0000E+00  0.0000E+00  0.0000E+00  0.0000E+00  0.0000E+00  0.0000E+00  0.0000E+00  0.0000E+00  0.0000E+00  0.0000E+00  0.0000E+00  0.0000E+00  0.0000E+00  0.0000E+00  0.1297E+03  0.2510E+02  0.0000E+00  0.0000E+00
REACH    1        0    12  0.1220E+00  0.1547E-01  0.1547E-01  0.4627E-06  0.0000E+00  0.8780E+02  0.8780E+02  0.6547E+03  0.7274E+02  0.7274E+02  0.1592E+02  0.1592E+02  0.3496E+01  0.3496E+01  0.0000E+00  0.3077E-02  0.0000E+00  0.0000E+00  0.4346E-01  0.4455E-01  0.8034E+00  0.8013E+00  0.1371E+05  0.1370E+05  0.2434E+03  0.1187E+03  0.0000E+00  0.0000E+00  0.0000E+00  0.0000E+00  0.0000E+00  0.0000E+00  0.0000E+00  0.0000E+00  0.0000E+00  0.0000E+00  0.0000E+00  0.0000E+00  0.0000E+00  0.0000E+00  0.0000E+00  0.0000E+00  0.0000E+00  0.7624E+02  0.1597E+02  0.0000E+00  0.0000E+00
REACH    2        0    12  0.1150E+00  0.1466E-01  0.1466E-01  0.1001E-05  0.0000E+00  0.8462E+02  0.8462E+02  0.6634E+03  0.7232E+02  0.7231E+02  0.1585E+02  0.1584E+02  0.3087E+01  0.3086E+01  0.0000E+00  0.6056E-02  0.0000E+00  0.0000E+00  0.3167E-01  0.3379E-01  0.8434E+00  0.8385E+00  0.1352E+05  0.1351E+05  0.2252E+03  0.1111E+03  0.0000E+00  0.0000E+00  0.0000E+00  0.0000E+00  0.0000E+00  0.0000E+00  0.0000E+00  0.0000E+00  0.0000E+00  0.0000E+00  0.0000E+00  0.0000E+00  0.0000E+00  0.0000E+00  0.0000E+00  0.0000E+00  0.0000E+00  0.7540E+02  0.1588E+02  0.0000E+00  0.0000E+00
REACH    3        0    12  0.4850E+00  0.6139E-01  0.6137E-01  0.1605E-04  0.0000E+00  0.2801E+03  0.5176E+02  0.1934E+03  0.2973E+03  0.2971E+03  0.6488E+02  0.6483E+02  0.1472E+02  0.1472E+02  0.9133E-02  0.2740E-01  0.0000E+00  0.3926E-06  0.2860E+00  0.3300E+00  0.3410E+01  0.3340E+01  0.4582E+05  0.4562E+05  0.7243E+03  0.4678E+03  0.0000E+00  0.0000E+00  0.0000E+00  0.0000E+00  0.0000E+00  0.0000E+00  0.0000E+00  0.0000E+00  0.0000E+00  0.0000E+00  0.0000E+00  0.0000E+00  0.0000E+00  0.0000E+00  0.0000E+00  0.0000E+00  0.0000E+00  0.3118E+03  0.6516E+02  0.0000E+00  0.0000E+00
REACH    1        0  2014  0.1220E+00  0.1083E-01  0.1083E-01  0.3913E-06  0.0000E+00  0.3895E+03  0.3895E+03  0.2359E+03  0.5104E+03  0.5104E+03  0.1123E+03  0.1122E+03  0.2459E+02  0.2459E+02  0.0000E+00  0.2084E-01  0.0000E+00  0.0000E+00  0.4754E+00  0.4826E+00  0.5738E+01  0.5724E+01  0.5228E+05  0.5226E+05  0.2017E+04  0.1266E+04  0.0000E+00  0.0000E+00  0.0000E+00  0.0000E+00  0.0000E+00  0.0000E+00  0.0000E+00  0.0000E+00  0.0000E+00  0.0000E+00  0.0000E+00  0.0000E+00  0.0000E+00  0.0000E+00  0.0000E+00  0.0000E+00  0.0000E+00  0.5350E+03  0.1127E+03  0.0000E+00  0.0000E+00
REACH    2        0  2014  0.1150E+00  0.1024E-01  0.1024E-01  0.8293E-06  0.0000E+00  0.3755E+03  0.3755E+03  0.2391E+03  0.5061E+03  0.5060E+03  0.1114E+03  0.1114E+03  0.1992E+02  0.1992E+02  0.0000E+00  0.4292E-01  0.0000E+00  0.0000E+00  0.3836E+00  0.3983E+00  0.5817E+01  0.5786E+01  0.5138E+05  0.5134E+05  0.1869E+04  0.1185E+04  0.0000E+00  0.0000E+00  0.0000E+00  0.0000E+00  0.0000E+00  0.0000E+00  0.0000E+00  0.0000E+00  0.0000E+00  0.0000E+00  0.0000E+00  0.0000E+00  0.0000E+00  0.0000E+00  0.0000E+00  0.0000E+00  0.0000E+00  0.5260E+03  0.1118E+03  0.0000E+00  0.0000E+00
REACH    3        0  2014  0.4850E+00  0.4296E-01  0.4294E-01  0.1433E-04  0.0000E+00  0.1243E+04  0.4468E+03  0.1503E+03  0.1933E+04  0.1932E+04  0.4245E+03  0.4242E+03  0.1229E+03  0.1228E+03  0.6376E-01  0.1911E+00  0.0000E+00  0.4163E-04  0.2515E+01  0.2791E+01  0.2214E+02  0.2172E+02  0.1737E+06  0.1730E+06  0.6622E+04  0.5109E+04  0.0000E+00  0.0000E+00  0.0000E+00  0.0000E+00  0.0000E+00  0.0000E+00  0.0000E+00  0.0000E+00  0.0000E+00  0.0000E+00  0.0000E+00  0.0000E+00  0.0000E+00  0.0000E+00  0.0000E+00  0.0000E+00  0.0000E+00  0.2055E+04  0.4270E+03  0.0000E+00  0.0000E+00
REACH    1        0     1  0.1220E+00  0.2548E-01  0.2548E-01  0.5745E-06  0.0000E+00  0.4107E+03  0.4107E+03  0.2286E+04  0.4713E+03  0.4713E+03  0.1037E+03  0.1037E+03  0.5565E+01  0.5564E+01  0.0000E+00  0.1685E-01  0.0000E+00  0.0000E+00  0.1484E+00  0.1545E+00  0.6707E+01  0.6692E+01  0.5466E+05  0.5464E+05  0.3586E+03  0.1287E+03  0.0000E+00  0.0000E+00  0.0000E+00  0.0000E+00  0.0000E+00  0.0000E+00  0.0000E+00  0.0000E+00  0.0000E+00  0.0000E+00  0.0000E+00  0.0000E+00  0.0000E+00  0.0000E+00  0.0000E+00  0.0000E+00  0.0000E+00  0.4769E+03  0.1038E+03  0.0000E+00  0.0000E+00
REACH    2        0     1  0.1150E+00  0.2412E-01  0.2412E-01  0.1196E-05  0.0000E+00  0.3953E+03  0.3953E+03  0.2319E+04  0.4625E+03  0.4624E+03  0.1018E+03  0.1018E+03  0.5051E+01  0.5051E+01  0.0000E+00  0.3741E-01  0.0000E+00  0.0000E+00  0.1273E+00  0.1408E+00  0.6772E+01  0.6737E+01  0.5378E+05  0.5374E+05  0.3274E+03  0.1196E+03  0.0000E+00  0.0000E+00  0.0000E+00  0.0000E+00  0.0000E+00  0.0000E+00  0.0000E+00  0.0000E+00  0.0000E+00  0.0000E+00  0.0000E+00  0.0000E+00  0.0000E+00  0.0000E+00  0.0000E+00  0.0000E+00  0.0000E+00  0.4675E+03  0.1020E+03  0.0000E+00  0.0000E+00
REACH    3        0     1  0.4850E+00  0.1010E+00  0.1010E+00  0.1941E-04  0.0000E+00  0.1309E+04  0.8140E+02  0.2475E+03  0.1759E+04  0.1758E+04  0.3864E+03  0.3860E+03  0.2288E+02  0.2287E+02  0.5426E-01  0.1628E+00  0.0000E+00  0.0000E+00  0.7928E+00  0.1097E+01  0.2544E+02  0.2491E+02  0.1829E+06  0.1821E+06  0.9766E+03  0.5071E+03  0.0000E+00  0.0000E+00  0.0000E+00  0.0000E+00  0.0000E+00  0.0000E+00  0.0000E+00  0.0000E+00  0.0000E+00  0.0000E+00  0.0000E+00  0.0000E+00  0.0000E+00  0.0000E+00  0.0000E+00  0.0000E+00  0.0000E+00  0.1781E+04  0.3871E+03  0.0000E+00  0.0000E+00
REACH    1        0     2  0.1220E+00  0.1201E-01  0.1201E-01  0.4657E-06  0.0000E+00  0.1314E+03  0.1314E+03  0.1045E+04  0.5873E+02  0.5872E+02  0.1292E+02  0.1292E+02  0.2471E+01  0.2471E+01  0.0000E+00  0.2694E-02  0.0000E+00  0.0000E+00  0.1911E-01  0.2007E-01  0.7186E+00  0.7166E+00  0.1562E+05  0.1561E+05  0.1704E+03  0.8488E+02  0.0000E+00  0.0000E+00  0.0000E+00  0.0000E+00  0.0000E+00  0.0000E+00  0.0000E+00  0.0000E+00  0.0000E+00  0.0000E+00  0.0000E+00  0.0000E+00  0.0000E+00  0.0000E+00  0.0000E+00  0.0000E+00  0.0000E+00  0.6120E+02  0.1294E+02  0.0000E+00  0.0000E+00
REACH    2        0     2  0.1150E+00  0.1127E-01  0.1127E-01  0.1001E-05  0.0000E+00  0.1266E+03  0.1266E+03  0.1061E+04  0.5808E+02  0.5807E+02  0.1280E+02  0.1280E+02  0.7888E+00  0.7888E+00  0.0000E+00  0.5959E-02  0.0000E+00  0.0000E+00  0.1416E-01  0.1627E-01  0.7511E+00  0.7461E+00  0.1540E+05  0.1538E+05  0.1558E+03  0.7763E+02  0.0000E+00  0.0000E+00  0.0000E+00  0.0000E+00  0.0000E+00  0.0000E+00  0.0000E+00  0.0000E+00  0.0000E+00  0.0000E+00  0.0000E+00  0.0000E+00  0.0000E+00  0.0000E+00  0.0000E+00  0.0000E+00  0.0000E+00  0.5886E+02  0.1281E+02  0.0000E+00  0.0000E+00
REACH    3        0     2  0.4850E+00  0.4779E-01  0.4777E-01  0.1963E-04  0.0000E+00  0.4193E+03  0.2860E+02  0.1975E+03  0.2445E+03  0.2443E+03  0.5370E+02  0.5363E+02  0.2469E+02  0.2468E+02  0.8653E-02  0.2595E-01  0.0000E+00  0.0000E+00  0.1392E+00  0.1917E+00  0.3236E+01  0.3144E+01  0.5235E+05  0.5204E+05  0.5133E+03  0.3437E+03  0.0000E+00  0.0000E+00  0.0000E+00  0.0000E+00  0.0000E+00  0.0000E+00  0.0000E+00  0.0000E+00  0.0000E+00  0.0000E+00  0.0000E+00  0.0000E+00  0.0000E+00  0.0000E+00  0.0000E+00  0.0000E+00  0.0000E+00  0.2690E+03  0.5382E+02  0.0000E+00  0.0000E+00
REACH    1        0     3  0.1220E+00  0.3920E-02  0.3919E-02  0.2663E-06  0.0000E+00  0.3760E-01  0.3760E-01  0.8002E+00  0.2206E-01  0.2206E-01  0.4792E-02  0.4790E-02  0.1280E+00  0.1280E+00  0.0000E+00  0.1026E-03  0.0000E+00  0.0000E+00  0.8355E-03  0.8394E-03  0.4336E-04  0.4318E-04  0.3103E+01  0.3102E+01  0.8435E+02  0.7939E+02  0.0000E+00  0.0000E+00  0.0000E+00  0.0000E+00  0.0000E+00  0.0000E+00  0.0000E+00  0.0000E+00  0.0000E+00  0.0000E+00  0.0000E+00  0.0000E+00  0.0000E+00  0.0000E+00  0.0000E+00  0.0000E+00  0.0000E+00  0.1502E+00  0.5630E-02  0.0000E+00  0.0000E+00
REACH    2        0     3  0.1150E+00  0.3660E-02  0.3659E-02  0.5774E-06  0.0000E+00  0.3648E-01  0.3648E-01  0.8140E+00  0.2313E-01  0.2312E-01  0.5026E-02  0.5024E-02  0.1589E-01  0.1589E-01  0.0000E+00  0.2213E-03  0.0000E+00  0.0000E+00  0.6355E-03  0.6385E-03  0.4731E-04  0.4694E-04  0.3022E+01  0.3020E+01  0.7866E+02  0.7397E+02  0.0000E+00  0.0000E+00  0.0000E+00  0.0000E+00  0.0000E+00  0.0000E+00  0.0000E+00  0.0000E+00  0.0000E+00  0.0000E+00  0.0000E+00  0.0000E+00  0.0000E+00  0.0000E+00  0.0000E+00  0.0000E+00  0.0000E+00  0.3923E-01  0.5663E-02  0.0000E+00  0.0000E+00
REACH    3        0     3  0.4850E+00  0.1566E-01  0.1565E-01  0.1231E-04  0.0000E+00  0.1228E+00  0.8201E+01  0.1297E+03  0.1129E+00  0.1128E+00  0.2413E-01  0.2410E-01  0.1327E+01  0.1326E+01  0.3240E-03  0.9700E-03  0.0000E+00  0.1401E-06  0.9387E-02  0.9631E-02  0.5460E-02  0.4472E-02  0.1032E+02  0.1027E+02  0.3285E+03  0.3198E+03  0.0000E+00  0.0000E+00  0.0000E+00  0.0000E+00  0.0000E+00  0.0000E+00  0.0000E+00  0.0000E+00  0.0000E+00  0.0000E+00  0.0000E+00  0.0000E+00  0.0000E+00  0.0000E+00  0.0000E+00  0.0000E+00  0.0000E+00  0.1440E+01  0.3373E-01  0.0000E+00  0.0000E+00
REACH    1        0     4  0.1220E+00  0.1207E-01  0.1207E-01  0.4158E-06  0.0000E+00  0.1426E+01  0.1426E+01  0.4890E+01  0.1067E+01  0.1067E+01  0.2282E+00  0.2282E+00  0.3082E+00  0.3081E+00  0.0000E+00  0.1570E-03  0.0000E+00  0.0000E+00  0.2455E-01  0.2458E-01  0.2167E-01  0.2163E-01  0.3947E+03  0.3945E+03  0.1723E+03  0.1213E+03  0.0000E+00  0.0000E+00  0.0000E+00  0.0000E+00  0.0000E+00  0.0000E+00  0.0000E+00  0.0000E+00  0.0000E+00  0.0000E+00  0.0000E+00  0.0000E+00  0.0000E+00  0.0000E+00  0.0000E+00  0.0000E+00  0.0000E+00  0.1375E+01  0.2528E+00  0.0000E+00  0.0000E+00
REACH    2        0     4  0.1150E+00  0.1145E-01  0.1145E-01  0.8947E-06  0.0000E+00  0.1352E+01  0.1352E+01  0.4884E+01  0.9136E+00  0.9135E+00  0.1971E+00  0.1971E+00  0.2758E+00  0.2757E+00  0.0000E+00  0.3053E-03  0.0000E+00  0.0000E+00  0.1593E-01  0.1596E-01  0.1960E-01  0.1952E-01  0.3770E+03  0.3768E+03  0.1596E+03  0.1145E+03  0.0000E+00  0.0000E+00  0.0000E+00  0.0000E+00  0.0000E+00  0.0000E+00  0.0000E+00  0.0000E+00  0.0000E+00  0.0000E+00  0.0000E+00  0.0000E+00  0.0000E+00  0.0000E+00  0.0000E+00  0.0000E+00  0.0000E+00  0.1190E+01  0.2131E+00  0.0000E+00  0.0000E+00
REACH    3        0     4  0.4850E+00  0.4797E-01  0.4795E-01  0.1699E-04  0.0000E+00  0.4613E+01  0.3590E+02  0.1621E+03  0.4952E+01  0.4949E+01  0.1045E+01  0.1044E+01  0.1334E+01  0.1333E+01  0.4623E-03  0.1385E-02  0.0000E+00  0.3704E-06  0.1391E+00  0.1402E+00  0.1047E+00  0.1028E+00  0.1278E+04  0.1272E+04  0.6046E+03  0.4958E+03  0.0000E+00  0.0000E+00  0.0000E+00  0.0000E+00  0.0000E+00  0.0000E+00  0.0000E+00  0.0000E+00  0.0000E+00  0.0000E+00  0.0000E+00  0.0000E+00  0.0000E+00  0.0000E+00  0.0000E+00  0.0000E+00  0.0000E+00  0.6283E+01  0.1184E+01  0.0000E+00  0.0000E+00
REACH    1        0     5  0.1220E+00  0.1437E-01  0.1437E-01  0.4286E-06  0.0000E+00  0.1421E+01  0.1421E+01  0.9676E+01  0.1120E+01  0.1120E+01  0.2418E+00  0.2418E+00  0.2409E+01  0.2409E+01  0.0000E+00  0.1612E-03  0.0000E+00  0.0000E+00  0.3041E-01  0.3043E-01  0.1410E-01  0.1406E-01  0.3096E+03  0.3094E+03  0.2498E+03  0.1749E+03  0.0000E+00  0.0000E+00  0.0000E+00  0.0000E+00  0.0000E+00  0.0000E+00  0.0000E+00  0.0000E+00  0.0000E+00  0.0000E+00  0.0000E+00  0.0000E+00  0.0000E+00  0.0000E+00  0.0000E+00  0.0000E+00  0.0000E+00  0.3529E+01  0.2722E+00  0.0000E+00  0.0000E+00
REACH    2        0     5  0.1150E+00  0.1361E-01  0.1361E-01  0.7778E-06  0.0000E+00  0.1365E+01  0.1365E+01  0.9768E+01  0.1080E+01  0.1080E+01  0.2344E+00  0.2344E+00  0.2260E+01  0.2260E+01  0.0000E+00  0.3285E-03  0.0000E+00  0.0000E+00  0.2473E-01  0.2477E-01  0.1424E-01  0.1416E-01  0.2991E+03  0.2989E+03  0.2315E+03  0.1640E+03  0.0000E+00  0.0000E+00  0.0000E+00  0.0000E+00  0.0000E+00  0.0000E+00  0.0000E+00  0.0000E+00  0.0000E+00  0.0000E+00  0.0000E+00  0.0000E+00  0.0000E+00  0.0000E+00  0.0000E+00  0.0000E+00  0.0000E+00  0.3341E+01  0.2591E+00  0.0000E+00  0.0000E+00
REACH    3        0     5  0.4850E+00  0.5682E-01  0.5680E-01  0.1426E-04  0.0000E+00  0.4569E+01  0.4400E+02  0.2002E+03  0.4925E+01  0.4922E+01  0.1053E+01  0.1052E+01  0.9559E+01  0.9557E+01  0.4898E-03  0.1469E-02  0.0000E+00  0.0000E+00  0.1593E+00  0.1606E+00  0.6480E-01  0.6332E-01  0.9970E+03  0.9923E+03  0.8587E+03  0.7177E+03  0.0000E+00  0.0000E+00  0.0000E+00  0.0000E+00  0.0000E+00  0.0000E+00  0.0000E+00  0.0000E+00  0.0000E+00  0.0000E+00  0.0000E+00  0.0000E+00  0.0000E+00  0.0000E+00  0.0000E+00  0.0000E+00  0.0000E+00  0.1448E+02  0.1212E+01  0.0000E+00  0.0000E+00
REACH    1        0     6  0.1220E+00  0.7652E-02  0.7651E-02  0.4009E-06  0.0000E+00  0.9333E+00  0.9333E+00  0.1508E+02  0.7703E+00  0.7703E+00  0.1679E+00  0.1679E+00  0.1680E+01  0.1680E+01  0.0000E+00  0.1186E-03  0.0000E+00  0.0000E+00  0.1697E-01  0.1698E-01  0.4935E-02  0.4921E-02  0.1394E+03  0.1393E+03  0.1370E+03  0.8453E+02  0.0000E+00  0.0000E+00  0.0000E+00  0.0000E+00  0.0000E+00  0.0000E+00  0.0000E+00  0.0000E+00  0.0000E+00  0.0000E+00  0.0000E+00  0.0000E+00  0.0000E+00  0.0000E+00  0.0000E+00  0.0000E+00  0.0000E+00  0.2450E+01  0.1848E+00  0.0000E+00  0.0000E+00
REACH    2        0     6  0.1150E+00  0.7218E-02  0.7218E-02  0.8045E-06  0.0000E+00  0.9057E+00  0.9057E+00  0.1529E+02  0.8015E+00  0.8014E+00  0.1749E+00  0.1749E+00  0.1531E+01  0.1531E+01  0.0000E+00  0.2500E-03  0.0000E+00  0.0000E+00  0.1513E-01  0.1515E-01  0.5333E-02  0.5299E-02  0.1358E+03  0.1357E+03  0.1264E+03  0.7823E+02  0.0000E+00  0.0000E+00  0.0000E+00  0.0000E+00  0.0000E+00  0.0000E+00  0.0000E+00  0.0000E+00  0.0000E+00  0.0000E+00  0.0000E+00  0.0000E+00  0.0000E+00  0.0000E+00  0.0000E+00  0.0000E+00  0.0000E+00  0.2332E+01  0.1900E+00  0.0000E+00  0.0000E+00
REACH    3        0     6  0.4850E+00  0.3052E-01  0.3051E-01  0.1536E-04  0.0000E+00  0.2998E+01  0.2421E+02  0.1398E+03  0.3380E+01  0.3378E+01  0.7290E+00  0.7284E+00  0.6942E+01  0.6938E+01  0.3686E-03  0.1102E-02  0.0000E+00  0.9502E-06  0.9215E-01  0.9283E-01  0.2460E-01  0.2373E-01  0.4489E+03  0.4471E+03  0.4528E+03  0.3584E+03  0.0000E+00  0.0000E+00  0.0000E+00  0.0000E+00  0.0000E+00  0.0000E+00  0.0000E+00  0.0000E+00  0.0000E+00  0.0000E+00  0.0000E+00  0.0000E+00  0.0000E+00  0.0000E+00  0.0000E+00  0.0000E+00  0.0000E+00  0.1032E+02  0.8212E+00  0.0000E+00  0.0000E+00
REACH    1        0     7  0.1220E+00  0.2333E-02  0.2332E-02  0.3063E-06  0.0000E+00  0.4903E-01  0.4903E-01  0.1544E+01  0.4203E-01  0.4203E-01  0.9221E-02  0.9220E-02  0.4864E+00  0.4864E+00  0.0000E+00  0.8957E-04  0.0000E+00  0.0000E+00  0.8379E-03  0.8387E-03  0.5906E-04  0.5874E-04  0.3624E+01  0.3623E+01  0.5111E+02  0.4674E+02  0.0000E+00  0.0000E+00  0.0000E+00  0.0000E+00  0.0000E+00  0.0000E+00  0.0000E+00  0.0000E+00  0.0000E+00  0.0000E+00  0.0000E+00  0.0000E+00  0.0000E+00  0.0000E+00  0.0000E+00  0.0000E+00  0.0000E+00  0.5285E+00  0.1006E-01  0.0000E+00  0.0000E+00
REACH    2        0     7  0.1150E+00  0.2189E-02  0.2188E-02  0.6540E-06  0.0000E+00  0.4790E-01  0.4790E-01  0.1585E+01  0.4608E-01  0.4607E-01  0.1009E-01  0.1009E-01  0.4367E+00  0.4366E+00  0.0000E+00  0.1909E-03  0.0000E+00  0.0000E+00  0.8232E-03  0.8263E-03  0.6430E-04  0.6352E-04  0.3542E+01  0.3539E+01  0.4783E+02  0.4372E+02  0.0000E+00  0.0000E+00  0.0000E+00  0.0000E+00  0.0000E+00  0.0000E+00  0.0000E+00  0.0000E+00  0.0000E+00  0.0000E+00  0.0000E+00  0.0000E+00  0.0000E+00  0.0000E+00  0.0000E+00  0.0000E+00  0.0000E+00  0.4829E+00  0.1092E-01  0.0000E+00  0.0000E+00
REACH    3        0     7  0.4850E+00  0.9443E-02  0.9428E-02  0.1479E-04  0.0000E+00  0.1580E+00  0.4633E+01  0.8553E+02  0.1871E+00  0.1869E+00  0.4061E-01  0.4056E-01  0.2133E+01  0.2131E+01  0.2805E-03  0.8334E-03  0.0000E+00  0.2254E-05  0.6157E-02  0.6321E-02  0.8618E-03  0.7640E-03  0.1180E+02  0.1173E+02  0.1990E+03  0.1916E+03  0.0000E+00  0.0000E+00  0.0000E+00  0.0000E+00  0.0000E+00  0.0000E+00  0.0000E+00  0.0000E+00  0.0000E+00  0.0000E+00  0.0000E+00  0.0000E+00  0.0000E+00  0.0000E+00  0.0000E+00  0.0000E+00  0.0000E+00  0.2319E+01  0.4688E-01  0.0000E+00  0.0000E+00
REACH    1        0     8  0.1220E+00  0.5390E-02  0.5389E-02  0.4000E-06  0.0000E+00  0.2742E+01  0.2742E+01  0.1952E+02  0.2522E+01  0.2521E+01  0.5538E+00  0.5538E+00  0.1615E+01  0.1615E+01  0.0000E+00  0.1994E-03  0.0000E+00  0.0000E+00  0.1503E-01  0.1507E-01  0.2143E-01  0.2137E-01  0.5241E+03  0.5239E+03  0.9984E+02  0.7101E+02  0.0000E+00  0.0000E+00  0.0000E+00  0.0000E+00  0.0000E+00  0.0000E+00  0.0000E+00  0.0000E+00  0.0000E+00  0.0000E+00  0.0000E+00  0.0000E+00  0.0000E+00  0.0000E+00  0.0000E+00  0.0000E+00  0.0000E+00  0.4137E+01  0.5688E+00  0.0000E+00  0.0000E+00
REACH    2        0     8  0.1150E+00  0.5127E-02  0.5127E-02  0.8715E-06  0.0000E+00  0.2648E+01  0.2648E+01  0.1966E+02  0.2567E+01  0.2567E+01  0.5640E+00  0.5639E+00  0.1525E+01  0.1525E+01  0.0000E+00  0.4464E-03  0.0000E+00  0.0000E+00  0.1239E-01  0.1248E-01  0.2283E-01  0.2267E-01  0.5087E+03  0.5082E+03  0.9368E+02  0.6706E+02  0.0000E+00  0.0000E+00  0.0000E+00  0.0000E+00  0.0000E+00  0.0000E+00  0.0000E+00  0.0000E+00  0.0000E+00  0.0000E+00  0.0000E+00  0.0000E+00  0.0000E+00  0.0000E+00  0.0000E+00  0.0000E+00  0.0000E+00  0.4092E+01  0.5764E+00  0.0000E+00  0.0000E+00
REACH    3        0     8  0.4850E+00  0.2133E-01  0.2131E-01  0.1524E-04  0.0000E+00  0.8764E+01  0.1997E+02  0.8050E+02  0.1042E+02  0.1041E+02  0.2274E+01  0.2272E+01  0.6248E+01  0.6246E+01  0.6458E-03  0.1916E-02  0.0000E+00  0.7953E-05  0.8132E-01  0.8271E-01  0.9165E-01  0.9005E-01  0.1678E+04  0.1672E+04  0.3395E+03  0.2822E+03  0.0000E+00  0.0000E+00  0.0000E+00  0.0000E+00  0.0000E+00  0.0000E+00  0.0000E+00  0.0000E+00  0.0000E+00  0.0000E+00  0.0000E+00  0.0000E+00  0.0000E+00  0.0000E+00  0.0000E+00  0.0000E+00  0.0000E+00  0.1666E+02  0.2355E+01  0.0000E+00  0.0000E+00
REACH    1        0     9  0.1220E+00  0.4554E-03  0.4551E-03  0.2664E-06  0.0000E+00  0.1607E-06  0.1607E-06  0.1850E-02  0.3656E-06  0.2270E-06  0.1097E-05  0.7879E-06  0.2581E+00  0.2581E+00  0.0000E+00  0.8294E-04  0.0000E+00  0.0000E+00  0.3680E-06  0.6923E-06  0.3857E-14  0.0000E+00  0.0000E+00  0.0000E+00  0.9942E+01  0.9688E+01  0.0000E+00  0.0000E+00  0.0000E+00  0.0000E+00  0.0000E+00  0.0000E+00  0.0000E+00  0.0000E+00  0.0000E+00  0.0000E+00  0.0000E+00  0.0000E+00  0.0000E+00  0.0000E+00  0.0000E+00  0.0000E+00  0.0000E+00  0.2581E+00  0.1480E-05  0.0000E+00  0.0000E+00
REACH    2        0     9  0.1150E+00  0.4391E-03  0.4386E-03  0.5775E-06  0.0000E+00  0.9000E-07  0.9000E-07  0.1010E-02  0.3451E-06  0.2099E-06  0.1035E-05  0.7280E-06  0.2593E+00  0.2591E+00  0.0000E+00  0.1770E-03  0.0000E+00  0.0000E+00  0.3454E-06  0.6391E-06  0.3842E-14  0.0000E+00  0.0000E+00  0.0000E+00  0.9589E+01  0.9337E+01  0.0000E+00  0.0000E+00  0.0000E+00  0.0000E+00  0.0000E+00  0.0000E+00  0.0000E+00  0.0000E+00  0.0000E+00  0.0000E+00  0.0000E+00  0.0000E+00  0.0000E+00  0.0000E+00  0.0000E+00  0.0000E+00  0.0000E+00  0.2593E+00  0.1367E-05  0.0000E+00  0.0000E+00
REACH    3        0     9  0.4850E+00  0.1828E-02  0.1814E-02  0.1325E-04  0.0000E+00  0.6707E-06  0.4545E+00  0.2720E+02  0.1181E-05  0.7854E-06  0.3748E-05  0.2708E-05  0.1000E+01  0.9961E+00  0.2600E-03  0.7335E-03  0.0000E+00  0.1998E-04  0.1777E-04  0.3982E-04  0.2938E-05  0.2262E-05  0.0000E+00  0.0000E+00  0.3942E+02  0.3863E+02  0.0000E+00  0.0000E+00  0.0000E+00  0.0000E+00  0.0000E+00  0.0000E+00  0.0000E+00  0.0000E+00  0.0000E+00  0.0000E+00  0.0000E+00  0.0000E+00  0.0000E+00  0.0000E+00  0.0000E+00  0.0000E+00  0.0000E+00  0.9968E+00  0.4253E-04  0.0000E+00  0.0000E+00
REACH    1        0    10  0.1220E+00  0.6203E-02  0.6203E-02  0.3067E-06  0.0000E+00  0.7717E+01  0.7717E+01  0.9656E+02  0.6006E+01  0.6006E+01  0.1330E+01  0.1330E+01  0.2474E+01  0.2474E+01  0.0000E+00  0.3443E-03  0.0000E+00  0.0000E+00  0.8417E-02  0.8513E-02  0.2960E-01  0.2951E-01  0.8243E+03  0.8240E+03  0.1146E+03  0.4947E+02  0.0000E+00  0.0000E+00  0.0000E+00  0.0000E+00  0.0000E+00  0.0000E+00  0.0000E+00  0.0000E+00  0.0000E+00  0.0000E+00  0.0000E+00  0.0000E+00  0.0000E+00  0.0000E+00  0.0000E+00  0.0000E+00  0.0000E+00  0.8480E+01  0.1338E+01  0.0000E+00  0.0000E+00
REACH    2        0    10  0.1150E+00  0.5917E-02  0.5917E-02  0.6671E-06  0.0000E+00  0.7469E+01  0.7469E+01  0.9756E+02  0.6311E+01  0.6311E+01  0.1397E+01  0.1396E+01  0.2341E+01  0.2341E+01  0.0000E+00  0.7977E-03  0.0000E+00  0.0000E+00  0.7299E-02  0.7521E-02  0.3251E-01  0.3227E-01  0.8177E+03  0.8169E+03  0.1077E+03  0.4659E+02  0.0000E+00  0.0000E+00  0.0000E+00  0.0000E+00  0.0000E+00  0.0000E+00  0.0000E+00  0.0000E+00  0.0000E+00  0.0000E+00  0.0000E+00  0.0000E+00  0.0000E+00  0.0000E+00  0.0000E+00  0.0000E+00  0.0000E+00  0.8652E+01  0.1404E+01  0.0000E+00  0.0000E+00
REACH    3        0    10  0.4850E+00  0.2452E-01  0.2451E-01  0.1322E-04  0.0000E+00  0.2469E+02  0.2030E+02  0.1084E+03  0.2617E+02  0.2615E+02  0.5754E+01  0.5750E+01  0.9770E+01  0.9767E+01  0.1142E-02  0.3396E-02  0.0000E+00  0.9876E-05  0.4751E-01  0.5132E-01  0.1378E+00  0.1346E+00  0.2768E+04  0.2757E+04  0.3254E+03  0.1979E+03  0.0000E+00  0.0000E+00  0.0000E+00  0.0000E+00  0.0000E+00  0.0000E+00  0.0000E+00  0.0000E+00  0.0000E+00  0.0000E+00  0.0000E+00  0.0000E+00  0.0000E+00  0.0000E+00  0.0000E+00  0.0000E+00  0.0000E+00  0.3592E+02  0.5801E+01  0.0000E+00  0.0000E+00
REACH    1        0    11  0.1220E+00  0.2052E-01  0.2052E-01  0.6375E-06  0.0000E+00  0.1725E+03  0.1725E+03  0.8212E+03  0.1008E+03  0.1008E+03  0.2226E+02  0.2226E+02  0.4808E+01  0.4808E+01  0.0000E+00  0.3716E-02  0.0000E+00  0.0000E+00  0.5692E-01  0.5825E-01  0.1270E+01  0.1267E+01  0.2437E+05  0.2436E+05  0.2534E+03  0.7094E+02  0.0000E+00  0.0000E+00  0.0000E+00  0.0000E+00  0.0000E+00  0.0000E+00  0.0000E+00  0.0000E+00  0.0000E+00  0.0000E+00  0.0000E+00  0.0000E+00  0.0000E+00  0.0000E+00  0.0000E+00  0.0000E+00  0.0000E+00  0.1056E+03  0.2232E+02  0.0000E+00  0.0000E+00
REACH    2        0    11  0.1150E+00  0.1946E-01  0.1946E-01  0.1280E-05  0.0000E+00  0.1660E+03  0.1660E+03  0.8318E+03  0.9684E+02  0.9683E+02  0.2144E+02  0.2144E+02  0.4394E+01  0.4394E+01  0.0000E+00  0.7601E-02  0.0000E+00  0.0000E+00  0.4296E-01  0.4567E-01  0.1321E+01  0.1315E+01  0.2399E+05  0.2397E+05  0.2324E+03  0.6614E+02  0.0000E+00  0.0000E+00  0.0000E+00  0.0000E+00  0.0000E+00  0.0000E+00  0.0000E+00  0.0000E+00  0.0000E+00  0.0000E+00  0.0000E+00  0.0000E+00  0.0000E+00  0.0000E+00  0.0000E+00  0.0000E+00  0.0000E+00  0.1012E+03  0.2148E+02  0.0000E+00  0.0000E+00
REACH    3        0    11  0.4850E+00  0.8131E-01  0.8129E-01  0.2130E-04  0.0000E+00  0.5501E+03  0.6116E+02  0.1629E+03  0.4380E+03  0.4377E+03  0.9610E+02  0.9600E+02  0.1902E+02  0.1901E+02  0.1132E-01  0.3393E-01  0.0000E+00  0.4846E-05  0.3282E+00  0.4095E+00  0.5818E+01  0.5696E+01  0.8149E+05  0.8108E+05  0.6536E+03  0.2753E+03  0.0000E+00  0.0000E+00  0.0000E+00  0.0000E+00  0.0000E+00  0.0000E+00  0.0000E+00  0.0000E+00  0.0000E+00  0.0000E+00  0.0000E+00  0.0000E+00  0.0000E+00  0.0000E+00  0.0000E+00  0.0000E+00  0.0000E+00  0.4567E+03  0.9641E+02  0.0000E+00  0.0000E+00
REACH    1        0    12  0.1220E+00  0.2289E-01  0.2289E-01  0.5022E-06  0.0000E+00  0.3725E+03  0.3725E+03  0.1306E+04  0.8651E+02  0.8651E+02  0.1900E+02  0.1900E+02  0.3585E+01  0.3585E+01  0.0000E+00  0.2968E-02  0.0000E+00  0.0000E+00  0.7288E-01  0.7393E-01  0.1397E+01  0.1394E+01  0.6124E+05  0.6122E+05  0.2872E+03  0.1502E+03  0.0000E+00  0.0000E+00  0.0000E+00  0.0000E+00  0.0000E+00  0.0000E+00  0.0000E+00  0.0000E+00  0.0000E+00  0.0000E+00  0.0000E+00  0.0000E+00  0.0000E+00  0.0000E+00  0.0000E+00  0.0000E+00  0.0000E+00  0.9010E+02  0.1908E+02  0.0000E+00  0.0000E+00
REACH    2        0    12  0.1150E+00  0.2167E-01  0.2166E-01  0.1096E-05  0.0000E+00  0.3578E+03  0.3578E+03  0.1320E+04  0.7622E+02  0.7621E+02  0.1685E+02  0.1685E+02  0.3169E+01  0.3169E+01  0.0000E+00  0.6059E-02  0.0000E+00  0.0000E+00  0.4337E-01  0.4550E-01  0.1371E+01  0.1364E+01  0.6010E+05  0.6006E+05  0.2641E+03  0.1405E+03  0.0000E+00  0.0000E+00  0.0000E+00  0.0000E+00  0.0000E+00  0.0000E+00  0.0000E+00  0.0000E+00  0.0000E+00  0.0000E+00  0.0000E+00  0.0000E+00  0.0000E+00  0.0000E+00  0.0000E+00  0.0000E+00  0.0000E+00  0.7939E+02  0.1689E+02  0.0000E+00  0.0000E+00
REACH    3        0    12  0.4850E+00  0.9079E-01  0.9077E-01  0.2091E-04  0.0000E+00  0.1187E+04  0.6987E+02  0.1564E+03  0.3971E+03  0.3968E+03  0.8681E+02  0.8673E+02  0.1505E+02  0.1505E+02  0.9027E-02  0.2707E-01  0.0000E+00  0.2057E-05  0.5003E+00  0.5697E+00  0.6893E+01  0.6763E+01  0.2046E+06  0.2036E+06  0.8771E+03  0.5931E+03  0.0000E+00  0.0000E+00  0.0000E+00  0.0000E+00  0.0000E+00  0.0000E+00  0.0000E+00  0.0000E+00  0.0000E+00  0.0000E+00  0.0000E+00  0.0000E+00  0.0000E+00  0.0000E+00  0.0000E+00  0.0000E+00  0.0000E+00  0.4119E+03  0.8730E+02  0.0000E+00  0.0000E+00
REACH    1        0  2015  0.1220E+00  0.1108E-01  0.1108E-01  0.4124E-06  0.0000E+00  0.1101E+04  0.1101E+04  0.4623E+03  0.7289E+03  0.7289E+03  0.1604E+03  0.1604E+03  0.2579E+02  0.2579E+02  0.0000E+00  0.2748E-01  0.0000E+00  0.0000E+00  0.3943E+00  0.4040E+00  0.1018E+02  0.1016E+02  0.1581E+06  0.1580E+06  0.1989E+04  0.1072E+04  0.0000E+00  0.0000E+00  0.0000E+00  0.0000E+00  0.0000E+00  0.0000E+00  0.0000E+00  0.0000E+00  0.0000E+00  0.0000E+00  0.0000E+00  0.0000E+00  0.0000E+00  0.0000E+00  0.0000E+00  0.0000E+00  0.0000E+00  0.7547E+03  0.1608E+03  0.0000E+00  0.0000E+00
REACH    2        0  2015  0.1150E+00  0.1048E-01  0.1048E-01  0.8624E-06  0.0000E+00  0.1059E+04  0.1059E+04  0.4685E+03  0.7054E+03  0.7053E+03  0.1555E+03  0.1555E+03  0.2205E+02  0.2205E+02  0.0000E+00  0.5975E-01  0.0000E+00  0.0000E+00  0.3047E+00  0.3256E+00  0.1031E+02  0.1026E+02  0.1554E+06  0.1553E+06  0.1835E+04  0.1001E+04  0.0000E+00  0.0000E+00  0.0000E+00  0.0000E+00  0.0000E+00  0.0000E+00  0.0000E+00  0.0000E+00  0.0000E+00  0.0000E+00  0.0000E+00  0.0000E+00  0.0000E+00  0.0000E+00  0.0000E+00  0.0000E+00  0.0000E+00  0.7274E+03  0.1558E+03  0.0000E+00  0.0000E+00
REACH    3        0  2015  0.4850E+00  0.4396E-01  0.4394E-01  0.1631E-04  0.0000E+00  0.3512E+04  0.3987E+03  0.1407E+03  0.2888E+04  0.2887E+04  0.6339E+03  0.6333E+03  0.1200E+03  0.1199E+03  0.8723E-01  0.2615E+00  0.0000E+00  0.4843E-04  0.2295E+01  0.2812E+01  0.4181E+02  0.4093E+02  0.5286E+06  0.5260E+06  0.6168E+04  0.4321E+04  0.0000E+00  0.0000E+00  0.0000E+00  0.0000E+00  0.0000E+00  0.0000E+00  0.0000E+00  0.0000E+00  0.0000E+00  0.0000E+00  0.0000E+00  0.0000E+00  0.0000E+00  0.0000E+00  0.0000E+00  0.0000E+00  0.0000E+00  0.3007E+04  0.6361E+03  0.0000E+00  0.0000E+00
REACH    1        0     1  0.1220E+00  0.3323E-02  0.3323E-02  0.3407E-06  0.0000E+00  0.9200E+01  0.9200E+01  0.1704E+03  0.1000E+02  0.1000E+02  0.2205E+01  0.2205E+01  0.5167E+00  0.5166E+00  0.0000E+00  0.4684E-03  0.0000E+00  0.0000E+00  0.2947E-02  0.3084E-02  0.1539E-01  0.1534E-01  0.4133E+03  0.4132E+03  0.6828E+02  0.3957E+02  0.0000E+00  0.0000E+00  0.0000E+00  0.0000E+00  0.0000E+00  0.0000E+00  0.0000E+00  0.0000E+00  0.0000E+00  0.0000E+00  0.0000E+00  0.0000E+00  0.0000E+00  0.0000E+00  0.0000E+00  0.0000E+00  0.0000E+00  0.1052E+02  0.2208E+01  0.0000E+00  0.0000E+00
REACH    2        0     1  0.1150E+00  0.3077E-02  0.3077E-02  0.7381E-06  0.0000E+00  0.8958E+01  0.8958E+01  0.1754E+03  0.1003E+02  0.1003E+02  0.2211E+01  0.2211E+01  0.4632E+00  0.4631E+00  0.0000E+00  0.1070E-02  0.0000E+00  0.0000E+00  0.2821E-02  0.3135E-02  0.1557E-01  0.1546E-01  0.4120E+03  0.4117E+03  0.6267E+02  0.3580E+02  0.0000E+00  0.0000E+00  0.0000E+00  0.0000E+00  0.0000E+00  0.0000E+00  0.0000E+00  0.0000E+00  0.0000E+00  0.0000E+00  0.0000E+00  0.0000E+00  0.0000E+00  0.0000E+00  0.0000E+00  0.0000E+00  0.0000E+00  0.1049E+02  0.2214E+01  0.0000E+00  0.0000E+00
REACH    3        0     1  0.4850E+00  0.1328E-01  0.1327E-01  0.1598E-04  0.0000E+00  0.2952E+02  0.6938E+01  0.1022E+03  0.3562E+02  0.3559E+02  0.7844E+01  0.7836E+01  0.2330E+01  0.2328E+01  0.1538E-02  0.4610E-02  0.0000E+00  0.6835E-06  0.1764E-01  0.2445E-01  0.5947E-01  0.5709E-01  0.1406E+04  0.1399E+04  0.2168E+03  0.1591E+03  0.0000E+00  0.0000E+00  0.0000E+00  0.0000E+00  0.0000E+00  0.0000E+00  0.0000E+00  0.0000E+00  0.0000E+00  0.0000E+00  0.0000E+00  0.0000E+00  0.0000E+00  0.0000E+00  0.0000E+00  0.0000E+00  0.0000E+00  0.3792E+02  0.7860E+01  0.0000E+00  0.0000E+00
REACH    1        0     2  0.1220E+00  0.4831E-02  0.4831E-02  0.3730E-06  0.0000E+00  0.8060E-01  0.8060E-01  0.1958E+01  0.1790E+00  0.1790E+00  0.3921E-01  0.3920E-01  0.1600E+01  0.1600E+01  0.0000E+00  0.1091E-03  0.0000E+00  0.0000E+00  0.7541E-03  0.7596E-03  0.9533E-04  0.9496E-04  0.3185E+01  0.3184E+01  0.9694E+02  0.9114E+02  0.0000E+00  0.0000E+00  0.0000E+00  0.0000E+00  0.0000E+00  0.0000E+00  0.0000E+00  0.0000E+00  0.0000E+00  0.0000E+00  0.0000E+00  0.0000E+00  0.0000E+00  0.0000E+00  0.0000E+00  0.0000E+00  0.0000E+00  0.1779E+01  0.3996E-01  0.0000E+00  0.0000E+00
REACH    2        0     2  0.1150E+00  0.4580E-02  0.4579E-02  0.8053E-06  0.0000E+00  0.7848E-01  0.7848E-01  0.1995E+01  0.1765E+00  0.1765E+00  0.3868E-01  0.3867E-01  0.4921E-01  0.4918E-01  0.0000E+00  0.2340E-03  0.0000E+00  0.0000E+00  0.4398E-03  0.4500E-03  0.9450E-04  0.9371E-04  0.3109E+01  0.3106E+01  0.9182E+02  0.8628E+02  0.0000E+00  0.0000E+00  0.0000E+00  0.0000E+00  0.0000E+00  0.0000E+00  0.0000E+00  0.0000E+00  0.0000E+00  0.0000E+00  0.0000E+00  0.0000E+00  0.0000E+00  0.0000E+00  0.0000E+00  0.0000E+00  0.0000E+00  0.2259E+00  0.3912E-01  0.0000E+00  0.0000E+00
REACH    3        0     2  0.4850E+00  0.1927E-01  0.1925E-01  0.1717E-04  0.0000E+00  0.2669E+00  0.1159E+02  0.1181E+03  0.6866E+00  0.6863E+00  0.1491E+00  0.1490E+00  0.2088E+02  0.2087E+02  0.3431E-03  0.1022E-02  0.0000E+00  0.2970E-05  0.1185E-01  0.1215E-01  0.8916E-01  0.8297E-01  0.1123E+02  0.1118E+02  0.3759E+03  0.3653E+03  0.0000E+00  0.0000E+00  0.0000E+00  0.0000E+00  0.0000E+00  0.0000E+00  0.0000E+00  0.0000E+00  0.0000E+00  0.0000E+00  0.0000E+00  0.0000E+00  0.0000E+00  0.0000E+00  0.0000E+00  0.0000E+00  0.0000E+00  0.2156E+02  0.1611E+00  0.0000E+00  0.0000E+00
REACH    1        0     3  0.1220E+00  0.8360E-02  0.8360E-02  0.3304E-06  0.0000E+00  0.3187E+00  0.3187E+00  0.2892E+01  0.5710E+00  0.5710E+00  0.1234E+00  0.1233E+00  0.1854E+00  0.1854E+00  0.0000E+00  0.1333E-03  0.0000E+00  0.0000E+00  0.1186E-01  0.1187E-01  0.4874E-02  0.4862E-02  0.5494E+02  0.5492E+02  0.1582E+03  0.1239E+03  0.0000E+00  0.0000E+00  0.0000E+00  0.0000E+00  0.0000E+00  0.0000E+00  0.0000E+00  0.0000E+00  0.0000E+00  0.0000E+00  0.0000E+00  0.0000E+00  0.0000E+00  0.0000E+00  0.0000E+00  0.0000E+00  0.0000E+00  0.7565E+00  0.1352E+00  0.0000E+00  0.0000E+00
REACH    2        0     3  0.1150E+00  0.7962E-02  0.7961E-02  0.6985E-06  0.0000E+00  0.3050E+00  0.3050E+00  0.2898E+01  0.5294E+00  0.5294E+00  0.1147E+00  0.1147E+00  0.4706E-01  0.4705E-01  0.0000E+00  0.2803E-03  0.0000E+00  0.0000E+00  0.8869E-02  0.8888E-02  0.4607E-02  0.4580E-02  0.5294E+02  0.5290E+02  0.1496E+03  0.1175E+03  0.0000E+00  0.0000E+00  0.0000E+00  0.0000E+00  0.0000E+00  0.0000E+00  0.0000E+00  0.0000E+00  0.0000E+00  0.0000E+00  0.0000E+00  0.0000E+00  0.0000E+00  0.0000E+00  0.0000E+00  0.0000E+00  0.0000E+00  0.5767E+00  0.1236E+00  0.0000E+00  0.0000E+00
REACH    3        0     3  0.4850E+00  0.3316E-01  0.3315E-01  0.1272E-04  0.0000E+00  0.1040E+01  0.2701E+02  0.1517E+03  0.2130E+01  0.2129E+01  0.4556E+00  0.4553E+00  0.2161E+01  0.2159E+01  0.4135E-03  0.1238E-02  0.0000E+00  0.4985E-06  0.7242E-01  0.7301E-01  0.3010E-01  0.2899E-01  0.1804E+03  0.1798E+03  0.5711E+03  0.5128E+03  0.0000E+00  0.0000E+00  0.0000E+00  0.0000E+00  0.0000E+00  0.0000E+00  0.0000E+00  0.0000E+00  0.0000E+00  0.0000E+00  0.0000E+00  0.0000E+00  0.0000E+00  0.0000E+00  0.0000E+00  0.0000E+00  0.0000E+00  0.4289E+01  0.5283E+00  0.0000E+00  0.0000E+00
REACH    1        0     4  0.1220E+00  0.4015E-01  0.4015E-01  0.8279E-06  0.0000E+00  0.2630E+01  0.2630E+01  0.1309E+02  0.7868E+01  0.7867E+01  0.1692E+01  0.1692E+01  0.1497E+01  0.1497E+01  0.0000E+00  0.4888E-03  0.0000E+00  0.0000E+00  0.1565E+00  0.1567E+00  0.1271E+00  0.1268E+00  0.6236E+03  0.6234E+03  0.6505E+03  0.4565E+03  0.0000E+00  0.0000E+00  0.0000E+00  0.0000E+00  0.0000E+00  0.0000E+00  0.0000E+00  0.0000E+00  0.0000E+00  0.0000E+00  0.0000E+00  0.0000E+00  0.0000E+00  0.0000E+00  0.0000E+00  0.0000E+00  0.0000E+00  0.9365E+01  0.1848E+01  0.0000E+00  0.0000E+00
REACH    2        0     4  0.1150E+00  0.3806E-01  0.3805E-01  0.1694E-05  0.0000E+00  0.2515E+01  0.2515E+01  0.1317E+02  0.7259E+01  0.7258E+01  0.1566E+01  0.1566E+01  0.1357E+01  0.1357E+01  0.0000E+00  0.1017E-02  0.0000E+00  0.0000E+00  0.1265E+00  0.1268E+00  0.1206E+00  0.1199E+00  0.6007E+03  0.6002E+03  0.6048E+03  0.4290E+03  0.0000E+00  0.0000E+00  0.0000E+00  0.0000E+00  0.0000E+00  0.0000E+00  0.0000E+00  0.0000E+00  0.0000E+00  0.0000E+00  0.0000E+00  0.0000E+00  0.0000E+00  0.0000E+00  0.0000E+00  0.0000E+00  0.0000E+00  0.8616E+01  0.1693E+01  0.0000E+00  0.0000E+00
REACH    3        0     4  0.4850E+00  0.1591E+00  0.1590E+00  0.2135E-04  0.0000E+00  0.8510E+01  0.1277E+03  0.2629E+03  0.2846E+02  0.2844E+02  0.6069E+01  0.6064E+01  0.6054E+01  0.6053E+01  0.1505E-02  0.4516E-02  0.0000E+00  0.0000E+00  0.7640E+00  0.7692E+00  0.4690E+00  0.4601E+00  0.2022E+04  0.2012E+04  0.2276E+04  0.1910E+04  0.0000E+00  0.0000E+00  0.0000E+00  0.0000E+00  0.0000E+00  0.0000E+00  0.0000E+00  0.0000E+00  0.0000E+00  0.0000E+00  0.0000E+00  0.0000E+00  0.0000E+00  0.0000E+00  0.0000E+00  0.0000E+00  0.0000E+00  0.3450E+02  0.6833E+01  0.0000E+00  0.0000E+00
REACH    1        0     5  0.1220E+00  0.3408E-02  0.3407E-02  0.2706E-06  0.0000E+00  0.5477E-01  0.5477E-01  0.3514E+00  0.4131E+00  0.4131E+00  0.8896E-01  0.8895E-01  0.3768E+00  0.3768E+00  0.0000E+00  0.1153E-03  0.0000E+00  0.0000E+00  0.5208E-02  0.5219E-02  0.1759E-02  0.1754E-02  0.6912E+01  0.6909E+01  0.7131E+02  0.6372E+02  0.0000E+00  0.0000E+00  0.0000E+00  0.0000E+00  0.0000E+00  0.0000E+00  0.0000E+00  0.0000E+00  0.0000E+00  0.0000E+00  0.0000E+00  0.0000E+00  0.0000E+00  0.0000E+00  0.0000E+00  0.0000E+00  0.0000E+00  0.7901E+00  0.9417E-01  0.0000E+00  0.0000E+00
REACH    2        0     5  0.1150E+00  0.3067E-02  0.3066E-02  0.5867E-06  0.0000E+00  0.5347E-01  0.5347E-01  0.3655E+00  0.3943E+00  0.3943E+00  0.8509E-01  0.8507E-01  0.3460E+00  0.3460E+00  0.0000E+00  0.2487E-03  0.0000E+00  0.0000E+00  0.4363E-02  0.4379E-02  0.1738E-02  0.1726E-02  0.6755E+01  0.6748E+01  0.6376E+02  0.5663E+02  0.0000E+00  0.0000E+00  0.0000E+00  0.0000E+00  0.0000E+00  0.0000E+00  0.0000E+00  0.0000E+00  0.0000E+00  0.0000E+00  0.0000E+00  0.0000E+00  0.0000E+00  0.0000E+00  0.0000E+00  0.0000E+00  0.0000E+00  0.7405E+00  0.8945E-01  0.0000E+00  0.0000E+00
REACH    3        0     5  0.4850E+00  0.1368E-01  0.1367E-01  0.1147E-04  0.0000E+00  0.1782E+00  0.1148E+02  0.6806E+02  0.1469E+01  0.1468E+01  0.3143E+00  0.3140E+00  0.1478E+01  0.1478E+01  0.3640E-03  0.1087E-02  0.0000E+00  0.1261E-06  0.2475E-01  0.2507E-01  0.6719E-02  0.6597E-02  0.2263E+02  0.2255E+02  0.2744E+03  0.2624E+03  0.0000E+00  0.0000E+00  0.0000E+00  0.0000E+00  0.0000E+00  0.0000E+00  0.0000E+00  0.0000E+00  0.0000E+00  0.0000E+00  0.0000E+00  0.0000E+00  0.0000E+00  0.0000E+00  0.0000E+00  0.0000E+00  0.0000E+00  0.2947E+01  0.3391E+00  0.0000E+00  0.0000E+00
REACH    1        0     6  0.1220E+00  0.2429E-03  0.2427E-03  0.2329E-06  0.0000E+00  0.1607E-06  0.1607E-06  0.2708E-03  0.3656E-06  0.0000E+00  0.1097E-05  0.1058E-05  0.1265E+00  0.1265E+00  0.0000E+00  0.8581E-04  0.0000E+00  0.0000E+00  0.3660E-06  0.0000E+00  0.1515E-14  0.0000E+00  0.0000E+00  0.0000E+00  0.5212E+01  0.5070E+01  0.0000E+00  0.0000E+00  0.0000E+00  0.0000E+00  0.0000E+00  0.0000E+00  0.0000E+00  0.0000E+00  0.0000E+00  0.0000E+00  0.0000E+00  0.0000E+00  0.0000E+00  0.0000E+00  0.0000E+00  0.0000E+00  0.0000E+00  0.1265E+00  0.1058E-05  0.0000E+00  0.0000E+00
REACH    2        0     6  0.1150E+00  0.1422E-03  0.1417E-03  0.5044E-06  0.0000E+00  0.9000E-07  0.9000E-07  0.2728E-03  0.3451E-06  0.1942E-06  0.1035E-05  0.9926E-06  0.1129E+00  0.1128E+00  0.0000E+00  0.1842E-03  0.0000E+00  0.0000E+00  0.3454E-06  0.5848E-06  0.1500E-14  0.0000E+00  0.0000E+00  0.0000E+00  0.3051E+01  0.2960E+01  0.0000E+00  0.0000E+00  0.0000E+00  0.0000E+00  0.0000E+00  0.0000E+00  0.0000E+00  0.0000E+00  0.0000E+00  0.0000E+00  0.0000E+00  0.0000E+00  0.0000E+00  0.0000E+00  0.0000E+00  0.0000E+00  0.0000E+00  0.1130E+00  0.1577E-05  0.0000E+00  0.0000E+00
REACH    3        0     6  0.4850E+00  0.1195E-02  0.1183E-02  0.1164E-04  0.0000E+00  0.6707E-06  0.8362E-01  0.2553E+02  0.9382E-06  0.0000E+00  0.4283E-05  0.4118E-05  0.4946E+00  0.4920E+00  0.2700E-03  0.8018E-03  0.0000E+00  0.4590E-05  0.1330E-05  0.0000E+00  0.2249E-14  0.0000E+00  0.0000E+00  0.0000E+00  0.2542E+02  0.2472E+02  0.0000E+00  0.0000E+00  0.0000E+00  0.0000E+00  0.0000E+00  0.0000E+00  0.0000E+00  0.0000E+00  0.0000E+00  0.0000E+00  0.0000E+00  0.0000E+00  0.0000E+00  0.0000E+00  0.0000E+00  0.0000E+00  0.0000E+00  0.4928E+00  0.4118E-05  0.0000E+00  0.0000E+00
REACH    1        0     7  0.1220E+00  0.3774E-02  0.3774E-02  0.2362E-06  0.0000E+00  0.1064E+01  0.1064E+01  0.1064E+02  0.3417E+01  0.3417E+01  0.7399E+00  0.7398E+00  0.1970E+01  0.1970E+01  0.0000E+00  0.2135E-03  0.0000E+00  0.0000E+00  0.1561E-01  0.1566E-01  0.2594E-01  0.2587E-01  0.1810E+03  0.1809E+03  0.6512E+02  0.3609E+02  0.0000E+00  0.0000E+00  0.0000E+00  0.0000E+00  0.0000E+00  0.0000E+00  0.0000E+00  0.0000E+00  0.0000E+00  0.0000E+00  0.0000E+00  0.0000E+00  0.0000E+00  0.0000E+00  0.0000E+00  0.0000E+00  0.0000E+00  0.5387E+01  0.7555E+00  0.0000E+00  0.0000E+00
REACH    2        0     7  0.1150E+00  0.3591E-02  0.3591E-02  0.5070E-06  0.0000E+00  0.1028E+01  0.1028E+01  0.1060E+02  0.3304E+01  0.3304E+01  0.7159E+00  0.7158E+00  0.1779E+01  0.1778E+01  0.0000E+00  0.4619E-03  0.0000E+00  0.0000E+00  0.1441E-01  0.1450E-01  0.2563E-01  0.2547E-01  0.1759E+03  0.1758E+03  0.6059E+02  0.3355E+02  0.0000E+00  0.0000E+00  0.0000E+00  0.0000E+00  0.0000E+00  0.0000E+00  0.0000E+00  0.0000E+00  0.0000E+00  0.0000E+00  0.0000E+00  0.0000E+00  0.0000E+00  0.0000E+00  0.0000E+00  0.0000E+00  0.0000E+00  0.5083E+01  0.7303E+00  0.0000E+00  0.0000E+00
REACH    3        0     7  0.4850E+00  0.1495E-01  0.1494E-01  0.1101E-04  0.0000E+00  0.3400E+01  0.1279E+02  0.6637E+02  0.1152E+02  0.1152E+02  0.2491E+01  0.2490E+01  0.7519E+01  0.7509E+01  0.6754E-03  0.2011E-02  0.0000E+00  0.7860E-05  0.7262E-01  0.7418E-01  0.9002E-01  0.8794E-01  0.5800E+03  0.5779E+03  0.2066E+03  0.1541E+03  0.0000E+00  0.0000E+00  0.0000E+00  0.0000E+00  0.0000E+00  0.0000E+00  0.0000E+00  0.0000E+00  0.0000E+00  0.0000E+00  0.0000E+00  0.0000E+00  0.0000E+00  0.0000E+00  0.0000E+00  0.0000E+00  0.0000E+00  0.1903E+02  0.2564E+01  0.0000E+00  0.0000E+00
REACH    1        0     8  0.1220E+00  0.3779E-02  0.3779E-02  0.3594E-06  0.0000E+00  0.8247E+00  0.8247E+00  0.1737E+02  0.1504E+01  0.1504E+01  0.3264E+00  0.3264E+00  0.1300E+01  0.1300E+01  0.0000E+00  0.1470E-03  0.0000E+00  0.0000E+00  0.4497E-02  0.4521E-02  0.2716E-02  0.2705E-02  0.6537E+02  0.6534E+02  0.7705E+02  0.4593E+02  0.0000E+00  0.0000E+00  0.0000E+00  0.0000E+00  0.0000E+00  0.0000E+00  0.0000E+00  0.0000E+00  0.0000E+00  0.0000E+00  0.0000E+00  0.0000E+00  0.0000E+00  0.0000E+00  0.0000E+00  0.0000E+00  0.0000E+00  0.2804E+01  0.3309E+00  0.0000E+00  0.0000E+00
REACH    2        0     8  0.1150E+00  0.3608E-02  0.3607E-02  0.7659E-06  0.0000E+00  0.8035E+00  0.8035E+00  0.1756E+02  0.1486E+01  0.1486E+01  0.3226E+00  0.3226E+00  0.1183E+01  0.1183E+01  0.0000E+00  0.3066E-03  0.0000E+00  0.0000E+00  0.4452E-02  0.4492E-02  0.2705E-02  0.2682E-02  0.6386E+02  0.6382E+02  0.7275E+02  0.4331E+02  0.0000E+00  0.0000E+00  0.0000E+00  0.0000E+00  0.0000E+00  0.0000E+00  0.0000E+00  0.0000E+00  0.0000E+00  0.0000E+00  0.0000E+00  0.0000E+00  0.0000E+00  0.0000E+00  0.0000E+00  0.0000E+00  0.0000E+00  0.2669E+01  0.3271E+00  0.0000E+00  0.0000E+00
REACH    3        0     8  0.4850E+00  0.1484E-01  0.1482E-01  0.1690E-04  0.0000E+00  0.2646E+01  0.9096E+01  0.9754E+02  0.5099E+01  0.5095E+01  0.1106E+01  0.1105E+01  0.4969E+01  0.4963E+01  0.4536E-03  0.1349E-02  0.0000E+00  0.6200E-05  0.2239E-01  0.2342E-01  0.1031E-01  0.9810E-02  0.2115E+03  0.2105E+03  0.2417E+03  0.1881E+03  0.0000E+00  0.0000E+00  0.0000E+00  0.0000E+00  0.0000E+00  0.0000E+00  0.0000E+00  0.0000E+00  0.0000E+00  0.0000E+00  0.0000E+00  0.0000E+00  0.0000E+00  0.0000E+00  0.0000E+00  0.0000E+00  0.0000E+00  0.1006E+02  0.1129E+01  0.0000E+00  0.0000E+00
REACH    1        0     9  0.1220E+00  0.4290E-02  0.4290E-02  0.2628E-06  0.0000E+00  0.2027E+01  0.2027E+01  0.2631E+02  0.4109E+01  0.4109E+01  0.8924E+00  0.8923E+00  0.1548E+01  0.1548E+01  0.0000E+00  0.2211E-03  0.0000E+00  0.0000E+00  0.4801E-02  0.4850E-02  0.1178E-01  0.1175E-01  0.1974E+03  0.1973E+03  0.8419E+02  0.5204E+02  0.0000E+00  0.0000E+00  0.0000E+00  0.0000E+00  0.0000E+00  0.0000E+00  0.0000E+00  0.0000E+00  0.0000E+00  0.0000E+00  0.0000E+00  0.0000E+00  0.0000E+00  0.0000E+00  0.0000E+00  0.0000E+00  0.0000E+00  0.5657E+01  0.8972E+00  0.0000E+00  0.0000E+00
REACH    2        0     9  0.1150E+00  0.4110E-02  0.4110E-02  0.4831E-06  0.0000E+00  0.1963E+01  0.1963E+01  0.2650E+02  0.4083E+01  0.4083E+01  0.8870E+00  0.8869E+00  0.1471E+01  0.1471E+01  0.0000E+00  0.4348E-03  0.0000E+00  0.0000E+00  0.4602E-02  0.4690E-02  0.1191E-01  0.1185E-01  0.1956E+03  0.1955E+03  0.7996E+02  0.4964E+02  0.0000E+00  0.0000E+00  0.0000E+00  0.0000E+00  0.0000E+00  0.0000E+00  0.0000E+00  0.0000E+00  0.0000E+00  0.0000E+00  0.0000E+00  0.0000E+00  0.0000E+00  0.0000E+00  0.0000E+00  0.0000E+00  0.0000E+00  0.5554E+01  0.8916E+00  0.0000E+00  0.0000E+00
REACH    3        0     9  0.4850E+00  0.1695E-01  0.1694E-01  0.1068E-04  0.0000E+00  0.6488E+01  0.1002E+02  0.1137E+03  0.1406E+02  0.1405E+02  0.3052E+01  0.3049E+01  0.6056E+01  0.6054E+01  0.6559E-03  0.1963E-02  0.0000E+00  0.2058E-05  0.2421E-01  0.2642E-01  0.4206E-01  0.4088E-01  0.6427E+03  0.6403E+03  0.2694E+03  0.2052E+03  0.0000E+00  0.0000E+00  0.0000E+00  0.0000E+00  0.0000E+00  0.0000E+00  0.0000E+00  0.0000E+00  0.0000E+00  0.0000E+00  0.0000E+00  0.0000E+00  0.0000E+00  0.0000E+00  0.0000E+00  0.0000E+00  0.0000E+00  0.2011E+02  0.3076E+01  0.0000E+00  0.0000E+00
REACH    1        0    10  0.1220E+00  0.3327E-02  0.3327E-02  0.3112E-06  0.0000E+00  0.7004E+00  0.7004E+00  0.2146E+02  0.1038E+01  0.1038E+01  0.2260E+00  0.2259E+00  0.9406E+00  0.9405E+00  0.0000E+00  0.1498E-03  0.0000E+00  0.0000E+00  0.9909E-03  0.1010E-02  0.3027E-03  0.3010E-03  0.2021E+02  0.2020E+02  0.7105E+02  0.5282E+02  0.0000E+00  0.0000E+00  0.0000E+00  0.0000E+00  0.0000E+00  0.0000E+00  0.0000E+00  0.0000E+00  0.0000E+00  0.0000E+00  0.0000E+00  0.0000E+00  0.0000E+00  0.0000E+00  0.0000E+00  0.0000E+00  0.0000E+00  0.1979E+01  0.2269E+00  0.0000E+00  0.0000E+00
REACH    2        0    10  0.1150E+00  0.3173E-02  0.3172E-02  0.6676E-06  0.0000E+00  0.6833E+00  0.6833E+00  0.2194E+02  0.1047E+01  0.1047E+01  0.2280E+00  0.2280E+00  0.8397E+00  0.8396E+00  0.0000E+00  0.3078E-03  0.0000E+00  0.0000E+00  0.9304E-03  0.9671E-03  0.3038E-03  0.3000E-03  0.2002E+02  0.2001E+02  0.6755E+02  0.5009E+02  0.0000E+00  0.0000E+00  0.0000E+00  0.0000E+00  0.0000E+00  0.0000E+00  0.0000E+00  0.0000E+00  0.0000E+00  0.0000E+00  0.0000E+00  0.0000E+00  0.0000E+00  0.0000E+00  0.0000E+00  0.0000E+00  0.0000E+00  0.1887E+01  0.2289E+00  0.0000E+00  0.0000E+00
REACH    3        0    10  0.4850E+00  0.1315E-01  0.1314E-01  0.1439E-04  0.0000E+00  0.2284E+01  0.6926E+01  0.1007E+03  0.3796E+01  0.3793E+01  0.8253E+00  0.8242E+00  0.3899E+01  0.3896E+01  0.4576E-03  0.1350E-02  0.0000E+00  0.9577E-05  0.6714E-02  0.7678E-02  0.2979E-02  0.2709E-02  0.7323E+02  0.7282E+02  0.2443E+03  0.2096E+03  0.0000E+00  0.0000E+00  0.0000E+00  0.0000E+00  0.0000E+00  0.0000E+00  0.0000E+00  0.0000E+00  0.0000E+00  0.0000E+00  0.0000E+00  0.0000E+00  0.0000E+00  0.0000E+00  0.0000E+00  0.0000E+00  0.0000E+00  0.7690E+01  0.8319E+00  0.0000E+00  0.0000E+00
REACH    1        0    11  0.1220E+00  0.1198E-01  0.1198E-01  0.5489E-06  0.0000E+00  0.5178E+02  0.5178E+02  0.3766E+03  0.8105E+02  0.8104E+02  0.1762E+02  0.1762E+02  0.4092E+01  0.4092E+01  0.0000E+00  0.3679E-02  0.0000E+00  0.0000E+00  0.4734E-01  0.4864E-01  0.9603E+00  0.9576E+00  0.7921E+04  0.7918E+04  0.1670E+03  0.6420E+02  0.0000E+00  0.0000E+00  0.0000E+00  0.0000E+00  0.0000E+00  0.0000E+00  0.0000E+00  0.0000E+00  0.0000E+00  0.0000E+00  0.0000E+00  0.0000E+00  0.0000E+00  0.0000E+00  0.0000E+00  0.0000E+00  0.0000E+00  0.8514E+02  0.1767E+02  0.0000E+00  0.0000E+00
REACH    2        0    11  0.1150E+00  0.1136E-01  0.1136E-01  0.1199E-05  0.0000E+00  0.4972E+02  0.4972E+02  0.3808E+03  0.7804E+02  0.7803E+02  0.1698E+02  0.1698E+02  0.3763E+01  0.3763E+01  0.0000E+00  0.7194E-02  0.0000E+00  0.0000E+00  0.4002E-01  0.4254E-01  0.9472E+00  0.9416E+00  0.7782E+04  0.7775E+04  0.1546E+03  0.5980E+02  0.0000E+00  0.0000E+00  0.0000E+00  0.0000E+00  0.0000E+00  0.0000E+00  0.0000E+00  0.0000E+00  0.0000E+00  0.0000E+00  0.0000E+00  0.0000E+00  0.0000E+00  0.0000E+00  0.0000E+00  0.0000E+00  0.0000E+00  0.8180E+02  0.1702E+02  0.0000E+00  0.0000E+00
REACH    3        0    11  0.4850E+00  0.4760E-01  0.4758E-01  0.2259E-04  0.0000E+00  0.1651E+03  0.3087E+02  0.1439E+03  0.2855E+03  0.2853E+03  0.6204E+02  0.6196E+02  0.1610E+02  0.1609E+02  0.1087E-01  0.3261E-01  0.0000E+00  0.1140E-05  0.2373E+00  0.2906E+00  0.3436E+01  0.3355E+01  0.2647E+05  0.2633E+05  0.4688E+03  0.2533E+03  0.0000E+00  0.0000E+00  0.0000E+00  0.0000E+00  0.0000E+00  0.0000E+00  0.0000E+00  0.0000E+00  0.0000E+00  0.0000E+00  0.0000E+00  0.0000E+00  0.0000E+00  0.0000E+00  0.0000E+00  0.0000E+00  0.0000E+00  0.3014E+03  0.6225E+02  0.0000E+00  0.0000E+00
REACH    1        0    12  0.1220E+00  0.1302E-01  0.1302E-01  0.4090E-06  0.0000E+00  0.1076E+03  0.1076E+03  0.1100E+04  0.9902E+02  0.9902E+02  0.2156E+02  0.2155E+02  0.4104E+01  0.4104E+01  0.0000E+00  0.2909E-02  0.0000E+00  0.0000E+00  0.3050E-01  0.3152E-01  0.5820E+00  0.5807E+00  0.1018E+05  0.1017E+05  0.2160E+03  0.7364E+02  0.0000E+00  0.0000E+00  0.0000E+00  0.0000E+00  0.0000E+00  0.0000E+00  0.0000E+00  0.0000E+00  0.0000E+00  0.0000E+00  0.0000E+00  0.0000E+00  0.0000E+00  0.0000E+00  0.0000E+00  0.0000E+00  0.0000E+00  0.1031E+03  0.2159E+02  0.0000E+00  0.0000E+00
REACH    2        0    12  0.1150E+00  0.1237E-01  0.1237E-01  0.9868E-06  0.0000E+00  0.1040E+03  0.1040E+03  0.1116E+04  0.9772E+02  0.9771E+02  0.2129E+02  0.2129E+02  0.3605E+01  0.3605E+01  0.0000E+00  0.6212E-02  0.0000E+00  0.0000E+00  0.2499E-01  0.2716E-01  0.5950E+00  0.5919E+00  0.1009E+05  0.1008E+05  0.2006E+03  0.6924E+02  0.0000E+00  0.0000E+00  0.0000E+00  0.0000E+00  0.0000E+00  0.0000E+00  0.0000E+00  0.0000E+00  0.0000E+00  0.0000E+00  0.0000E+00  0.0000E+00  0.0000E+00  0.0000E+00  0.0000E+00  0.0000E+00  0.0000E+00  0.1013E+03  0.2131E+02  0.0000E+00  0.0000E+00
REACH    3        0    12  0.4850E+00  0.5171E-01  0.5170E-01  0.1325E-04  0.0000E+00  0.3439E+03  0.4362E+02  0.1959E+03  0.3625E+03  0.3623E+03  0.7885E+02  0.7879E+02  0.1723E+02  0.1723E+02  0.9122E-02  0.2736E-01  0.0000E+00  0.1210E-05  0.1944E+00  0.2457E+00  0.2215E+01  0.2159E+01  0.3424E+05  0.3411E+05  0.5795E+03  0.2883E+03  0.0000E+00  0.0000E+00  0.0000E+00  0.0000E+00  0.0000E+00  0.0000E+00  0.0000E+00  0.0000E+00  0.0000E+00  0.0000E+00  0.0000E+00  0.0000E+00  0.0000E+00  0.0000E+00  0.0000E+00  0.0000E+00  0.0000E+00  0.3796E+03  0.7903E+02  0.0000E+00  0.0000E+00
REACH    1        0  2016  0.1220E+00  0.8330E-02  0.8330E-02  0.3742E-06  0.0000E+00  0.1763E+03  0.1763E+03  0.1463E+03  0.2092E+03  0.2092E+03  0.4551E+02  0.4550E+02  0.1826E+02  0.1826E+02  0.0000E+00  0.8721E-02  0.0000E+00  0.0000E+00  0.2810E+00  0.2838E+00  0.1732E+01  0.1728E+01  0.1966E+05  0.1966E+05  0.1731E+04  0.1105E+04  0.0000E+00  0.0000E+00  0.0000E+00  0.0000E+00  0.0000E+00  0.0000E+00  0.0000E+00  0.0000E+00  0.0000E+00  0.0000E+00  0.0000E+00  0.0000E+00  0.0000E+00  0.0000E+00  0.0000E+00  0.0000E+00  0.0000E+00  0.2274E+03  0.4579E+02  0.0000E+00  0.0000E+00
REACH    2        0  2016  0.1150E+00  0.7883E-02  0.7882E-02  0.8012E-06  0.0000E+00  0.1701E+03  0.1701E+03  0.1485E+03  0.2041E+03  0.2040E+03  0.4444E+02  0.4443E+02  0.1502E+02  0.1502E+02  0.0000E+00  0.1795E-01  0.0000E+00  0.0000E+00  0.2324E+00  0.2380E+00  0.1725E+01  0.1716E+01  0.1940E+05  0.1939E+05  0.1612E+04  0.1034E+04  0.0000E+00  0.0000E+00  0.0000E+00  0.0000E+00  0.0000E+00  0.0000E+00  0.0000E+00  0.0000E+00  0.0000E+00  0.0000E+00  0.0000E+00  0.0000E+00  0.0000E+00  0.0000E+00  0.0000E+00  0.0000E+00  0.0000E+00  0.2191E+03  0.4467E+02  0.0000E+00  0.0000E+00
REACH    3        0  2016  0.4850E+00  0.3306E-01  0.3305E-01  0.1490E-04  0.0000E+00  0.5633E+03  0.2981E+03  0.1204E+03  0.7509E+03  0.7504E+03  0.1632E+03  0.1630E+03  0.8917E+02  0.8912E+02  0.2667E-01  0.7991E-01  0.0000E+00  0.3691E-04  0.1448E+01  0.1572E+01  0.6450E+01  0.6292E+01  0.6586E+05  0.6557E+05  0.5750E+04  0.4533E+04  0.0000E+00  0.0000E+00  0.0000E+00  0.0000E+00  0.0000E+00  0.0000E+00  0.0000E+00  0.0000E+00  0.0000E+00  0.0000E+00  0.0000E+00  0.0000E+00  0.0000E+00  0.0000E+00  0.0000E+00  0.0000E+00  0.0000E+00  0.8396E+03  0.1646E+03  0.0000E+00  0.0000E+00
REACH    1        0   4.0  0.1220E+00  0.9658E-02  0.9658E-02  0.3756E-06  0.0000E+00  0.5661E+03  0.5661E+03  0.3066E+03  0.4943E+03  0.4943E+03  0.1087E+03  0.1087E+03  0.2264E+02  0.2264E+02  0.0000E+00  0.2041E-01  0.0000E+00  0.0000E+00  0.3586E+00  0.3657E+00  0.5800E+01  0.5785E+01  0.7499E+05  0.7496E+05  0.1864E+04  0.1124E+04  0.0000E+00  0.0000E+00  0.0000E+00  0.0000E+00  0.0000E+00  0.0000E+00  0.0000E+00  0.0000E+00  0.0000E+00  0.0000E+00  0.0000E+00  0.0000E+00  0.0000E+00  0.0000E+00  0.0000E+00  0.0000E+00  0.0000E+00  0.5170E+03  0.1090E+03  0.0000E+00  0.0000E+00
REACH    2        0   4.0  0.1150E+00  0.9142E-02  0.9141E-02  0.7991E-06  0.0000E+00  0.5452E+03  0.5452E+03  0.3107E+03  0.4857E+03  0.4857E+03  0.1069E+03  0.1069E+03  0.1914E+02  0.1914E+02  0.0000E+00  0.4210E-01  0.0000E+00  0.0000E+00  0.2881E+00  0.3025E+00  0.5889E+01  0.5857E+01  0.7381E+05  0.7375E+05  0.1729E+04  0.1053E+04  0.0000E+00  0.0000E+00  0.0000E+00  0.0000E+00  0.0000E+00  0.0000E+00  0.0000E+00  0.0000E+00  0.0000E+00  0.0000E+00  0.0000E+00  0.0000E+00  0.0000E+00  0.0000E+00  0.0000E+00  0.0000E+00  0.0000E+00  0.5049E+03  0.1072E+03  0.0000E+00  0.0000E+00
REACH    3        0   4.0  0.4850E+00  0.3833E-01  0.3831E-01  0.1456E-04  0.0000E+00  0.1806E+04  0.3629E+03  0.1371E+03  0.1894E+04  0.1893E+04  0.4156E+03  0.4152E+03  0.1062E+03  0.1062E+03  0.6251E-01  0.1874E+00  0.0000E+00  0.3628E-04  0.1961E+01  0.2268E+01  0.2295E+02  0.2247E+02  0.2504E+06  0.2493E+06  0.6019E+04  0.4543E+04  0.0000E+00  0.0000E+00  0.0000E+00  0.0000E+00  0.0000E+00  0.0000E+00  0.0000E+00  0.0000E+00  0.0000E+00  0.0000E+00  0.0000E+00  0.0000E+00  0.0000E+00  0.0000E+00  0.0000E+00  0.0000E+00  0.0000E+00  0.1999E+04  0.4175E+03  0.0000E+00  0.0000E+00
