1
    SWAT Dec 23 2016    VER 2016/Rev 664                                                                 0/ 0/   0      0: 0: 0

    General Input/Output section (file.cio):                                        
    2/11/2020 16:46:09 QSWAT Workflow v1.5.2                                        
                                                                                    


       SUB      GIS  MON   AREAkm2  PRECIPmm SNOMELTmm     PETmm      ETmm      SWmm    PERCmm    SURQmm    GW_Qmm    WYLDmm  SYLDt/ha ORGNkg/ha ORGPkg/haNSURQkg/ha SOLPkg/ha SEDPkg/ha LAT Q(mm)LATNO3kg/hGWNO3kg/haCHOLAmic/LCBODU mg/L DOXQ mg/L TNO3kg/ha   QTILEmm TVAPkg/ha
BIGSUB   1        0    1.12200E+00   576.600     0.000   117.376    87.652   107.919    13.827   146.595     4.078   459.366    21.786    28.483     3.477     0.005     0.008     2.803   308.490     0.440     0.001 .00000E+00 0.000E+00 0.000E+00 0.000E+00 0.000E+00 0.000E+00
BIGSUB   2        0    1.11502E+00   576.600     0.000   117.394    87.558   100.741    10.704   155.488     2.376   460.954    22.284    30.026     3.666     0.004     0.008     2.958   302.942     0.421     0.001 .00000E+00 0.000E+00 0.000E+00 0.000E+00 0.000E+00 0.000E+00
BIGSUB   3        0    1.24799E+00   576.600     0.000   117.345    87.572   110.384    21.333   152.870     7.419   456.223    13.113    23.402     2.858     0.017     0.014     2.289   295.594     0.472     0.002 .00000E+00 0.000E+00 0.000E+00 0.000E+00 0.000E+00 0.000E+00
BIGSUB   1        0    2.12200E+00   144.700     0.000   106.851    68.779    59.121     4.339    38.645     4.954   135.902    11.025     6.465     0.789     0.000     0.001     0.637    92.057     0.126     0.001 .00000E+00 0.000E+00 0.000E+00 0.000E+00 0.000E+00 0.000E+00
BIGSUB   2        0    2.11502E+00   144.700     0.000   106.892    68.693    52.058     3.507    40.760     2.792   134.253    11.255     6.811     0.831     0.000     0.001     0.673    90.516     0.123     0.001 .00000E+00 0.000E+00 0.000E+00 0.000E+00 0.000E+00 0.000E+00
BIGSUB   3        0    2.24799E+00   144.700     0.000   106.780    68.680    61.628     6.418    40.091     8.933   137.533     6.631     5.996     0.732     0.001     0.003     0.587    88.109     0.129     0.003 .00000E+00 0.000E+00 0.000E+00 0.000E+00 0.000E+00 0.000E+00
BIGSUB   1        0    3.12200E+00    93.800     0.000   115.441    84.260    29.650     0.000     0.000     3.375    42.652     0.000     0.000     0.000     0.000     0.000     0.000    38.995     0.034     0.000 .00000E+00 0.000E+00 0.000E+00 0.000E+00 0.000E+00 0.000E+00
BIGSUB   2        0    3.11502E+00    93.800     0.000   115.491    83.648    22.632     0.000     0.000     2.056    41.831     0.000     0.000     0.000     0.000     0.000     0.000    39.562     0.000     0.000 .00000E+00 0.000E+00 0.000E+00 0.000E+00 0.000E+00 0.000E+00
BIGSUB   3        0    3.24799E+00    93.800     0.000   115.355    84.851    33.056     0.003     0.309     6.709    44.662     0.000     0.000     0.000     0.017     0.000     0.000    37.194     0.156     0.001 .00000E+00 0.000E+00 0.000E+00 0.000E+00 0.000E+00 0.000E+00
BIGSUB   1        0    4.12200E+00   238.900     0.000   112.395    61.205    56.197     0.169    26.020     0.592   136.417     0.028     0.025     0.003     0.001     0.001     0.002   109.574     0.027     0.000 .00000E+00 0.000E+00 0.000E+00 0.000E+00 0.000E+00 0.000E+00
BIGSUB   2        0    4.11502E+00   238.900     0.000   112.405    57.905    50.499     0.000    27.314     0.326   138.252     0.029     0.026     0.003     0.001     0.000     0.002   110.436     0.026     0.000 .00000E+00 0.000E+00 0.000E+00 0.000E+00 0.000E+00 0.000E+00
BIGSUB   3        0    4.24799E+00   238.900     0.000   112.378    63.563    60.837     0.017    29.230     1.050   134.255     0.018     0.030     0.004     0.002     0.001     0.003   103.607     0.030     0.000 .00000E+00 0.000E+00 0.000E+00 0.000E+00 0.000E+00 0.000E+00
BIGSUB   1        0    5.12200E+00   134.700     0.000   133.590    74.335    52.407     0.117     1.221     0.149    79.031     0.001     0.001     0.000     0.000     0.000     0.000    77.470     0.053     0.000 .00000E+00 0.000E+00 0.000E+00 0.000E+00 0.000E+00 0.000E+00
BIGSUB   2        0    5.11502E+00   134.700     0.000   133.571    73.193    46.989     0.011     1.330     0.033    79.816     0.001     0.001     0.000     0.000     0.000     0.000    78.309     0.052     0.000 .00000E+00 0.000E+00 0.000E+00 0.000E+00 0.000E+00 0.000E+00
BIGSUB   3        0    5.24799E+00   134.700     0.000   133.621    77.277    56.497     0.022     2.097     0.097    76.072     0.001     0.001     0.000     0.001     0.000     0.000    73.580     0.051     0.000 .00000E+00 0.000E+00 0.000E+00 0.000E+00 0.000E+00 0.000E+00
BIGSUB   1        0    6.12200E+00   299.100     0.000    88.472    60.104    68.791     0.323    91.400     0.186   222.689     0.280     0.253     0.031     0.004     0.004     0.023   130.961     0.196     0.000 .00000E+00 0.000E+00 0.000E+00 0.000E+00 0.000E+00 0.000E+00
BIGSUB   2        0    6.11502E+00   299.100     0.000    88.418    60.108    61.888     0.114    93.987     0.016   224.179     0.285     0.261     0.032     0.004     0.003     0.024   130.071     0.190     0.000 .00000E+00 0.000E+00 0.000E+00 0.000E+00 0.000E+00 0.000E+00
BIGSUB   3        0    6.24799E+00   299.100     0.000    88.568    59.441    75.442     0.767    95.609     0.014   220.242     0.171     0.248     0.031     0.005     0.006     0.023   124.398     0.196     0.000 .00000E+00 0.000E+00 0.000E+00 0.000E+00 0.000E+00 0.000E+00
BIGSUB   1        0    7.12200E+00   248.800     0.000   102.923    73.315    80.935     0.960    10.741     0.250   162.986     0.052     0.051     0.006     0.001     0.000     0.005   151.881     0.203     0.000 .00000E+00 0.000E+00 0.000E+00 0.000E+00 0.000E+00 0.000E+00
BIGSUB   2        0    7.11502E+00   248.800     0.000   102.833    72.818    71.568     1.859    11.516     0.203   164.974     0.054     0.056     0.007     0.001     0.000     0.005   153.170     0.203     0.000 .00000E+00 0.000E+00 0.000E+00 0.000E+00 0.000E+00 0.000E+00
BIGSUB   3        0    7.24799E+00   248.800     0.000   103.080    74.433    84.485     4.776    14.287     0.803   161.773     0.032     0.052     0.006     0.043     0.001     0.005   146.501     0.208     0.000 .00000E+00 0.000E+00 0.000E+00 0.000E+00 0.000E+00 0.000E+00
BIGSUB   1        0    8.12200E+00   467.800     0.000   112.539    71.579    96.365     6.221   144.113     0.930   375.385     1.793     1.770     0.219     0.006     0.005     0.169   230.238     0.217     0.000 .00000E+00 0.000E+00 0.000E+00 0.000E+00 0.000E+00 0.000E+00
BIGSUB   2        0    8.11502E+00   467.800     0.000   112.457    70.739    88.942     3.637   149.080     1.285   377.195     1.831     1.885     0.233     0.005     0.004     0.180   226.747     0.207     0.000 .00000E+00 0.000E+00 0.000E+00 0.000E+00 0.000E+00 0.000E+00
BIGSUB   3        0    8.24799E+00   467.800     0.000   112.683    73.840    98.463    10.461   150.113     3.523   373.034     1.082     1.652     0.204     0.008     0.009     0.156   219.206     0.203     0.000 .00000E+00 0.000E+00 0.000E+00 0.000E+00 0.000E+00 0.000E+00
BIGSUB   1        0    9.12200E+00   166.700     0.000   150.301    81.275    86.913     0.942    16.369     2.616    96.954     0.528     0.363     0.045     0.002     0.000     0.035    77.849     0.048     0.000 .00000E+00 0.000E+00 0.000E+00 0.000E+00 0.000E+00 0.000E+00
BIGSUB   2        0    9.11502E+00   166.700     0.000   150.214    80.009    79.985     0.582    17.566     1.984    97.427     0.543     0.405     0.050     0.002     0.000     0.039    77.786     0.046     0.000 .00000E+00 0.000E+00 0.000E+00 0.000E+00 0.000E+00 0.000E+00
BIGSUB   3        0    9.24799E+00   166.700     0.000   150.454    84.680    87.738     1.554    17.436     5.475    97.156     0.318     0.373     0.046     0.002     0.001     0.035    74.020     0.047     0.001 .00000E+00 0.000E+00 0.000E+00 0.000E+00 0.000E+00 0.000E+00
BIGSUB   1        0   10.12200E+00   234.500     0.000   163.494    74.764    94.503     0.758    47.623     1.661   146.606     2.601     1.529     0.188     0.006     0.001     0.148    97.203     0.103     0.000 .00000E+00 0.000E+00 0.000E+00 0.000E+00 0.000E+00 0.000E+00
BIGSUB   2        0   10.11502E+00   234.500     0.000   163.416    73.802    86.713     0.678    50.438     1.399   148.255     2.670     1.665     0.205     0.006     0.001     0.161    96.331     0.100     0.000 .00000E+00 0.000E+00 0.000E+00 0.000E+00 0.000E+00 0.000E+00
BIGSUB   3        0   10.24799E+00   234.500     0.000   163.631    76.391    95.976     1.785    48.597     3.659   145.671     1.569     1.581     0.194     0.007     0.002     0.151    93.194     0.107     0.000 .00000E+00 0.000E+00 0.000E+00 0.000E+00 0.000E+00 0.000E+00
BIGSUB   1        0   11.12200E+00   180.900     0.000   149.903    74.815    93.421     0.493    23.689     0.364   107.880     2.419     1.165     0.143     0.002     0.001     0.113    83.727     0.092     0.000 .00000E+00 0.000E+00 0.000E+00 0.000E+00 0.000E+00 0.000E+00
BIGSUB   2        0   11.11502E+00   180.900     0.000   149.846    74.464    84.931     0.489    25.137     0.422   108.987     2.482     1.252     0.154     0.002     0.001     0.122    83.357     0.090     0.000 .00000E+00 0.000E+00 0.000E+00 0.000E+00 0.000E+00 0.000E+00
BIGSUB   3        0   11.24799E+00   180.900     0.000   150.004    73.587    96.183     1.283    25.412     1.120   107.796     1.463     1.248     0.153     0.004     0.001     0.120    81.078     0.102     0.000 .00000E+00 0.000E+00 0.000E+00 0.000E+00 0.000E+00 0.000E+00
BIGSUB   1        0   12.12200E+00   309.800     0.000   145.821    95.344    98.360     3.128    44.163     0.966   205.614     8.422     3.246     0.399     0.003     0.001     0.316   160.391     0.226     0.000 .00000E+00 0.000E+00 0.000E+00 0.000E+00 0.000E+00 0.000E+00
BIGSUB   2        0   12.11502E+00   309.800     0.000   145.799    94.809    90.333     1.894    46.850     0.796   206.825     8.629     3.469     0.426     0.002     0.001     0.338   159.112     0.215     0.000 .00000E+00 0.000E+00 0.000E+00 0.000E+00 0.000E+00 0.000E+00
BIGSUB   3        0   12.24799E+00   309.800     0.000   145.860    95.874   101.274     5.804    47.387     2.173   203.644     5.085     3.616     0.444     0.010     0.003     0.347   153.906     0.246     0.000 .00000E+00 0.000E+00 0.000E+00 0.000E+00 0.000E+00 0.000E+00
BIGSUB   1        0 2013.12200E+00  3096.300     0.000  1499.107   907.428    98.360    31.276   590.580    20.120  2171.483    48.934    43.352     5.301     0.029     0.023     4.251  1558.836     1.765     0.004 .00000E+00 0.000E+00 0.000E+00 0.000E+00 0.000E+00 0.000E+00
BIGSUB   2        0 2013.11502E+00  3096.300     0.000  1498.735   897.745    90.333    23.476   619.464    13.688  2182.949    50.062    45.858     5.608     0.028     0.020     4.502  1548.339     1.671     0.002 .00000E+00 0.000E+00 0.000E+00 0.000E+00 0.000E+00 0.000E+00
BIGSUB   3        0 2013.24799E+00  3096.300     0.000  1499.760   920.189   101.274    54.222   623.438    40.974  2158.061    29.484    38.200     4.672     0.118     0.042     3.715  1490.387     1.946     0.007 .00000E+00 0.000E+00 0.000E+00 0.000E+00 0.000E+00 0.000E+00
BIGSUB   1        0    1.12200E+00   549.600     0.000   142.838    95.933    99.681    11.384   158.252     3.395   451.365    18.052    29.914     3.652     0.004     0.009     2.943   289.582     0.393     0.001 .00000E+00 0.000E+00 0.000E+00 0.000E+00 0.000E+00 0.000E+00
BIGSUB   2        0    1.11502E+00   549.600     0.000   142.879    95.596    92.486     8.156   167.332     2.098   452.589    18.460    31.410     3.835     0.004     0.009     3.094   283.063     0.372     0.001 .00000E+00 0.000E+00 0.000E+00 0.000E+00 0.000E+00 0.000E+00
BIGSUB   3        0    1.24799E+00   549.600     0.000   142.768    96.415   102.167    17.831   164.222     6.082   447.417    10.896    25.152     3.073     0.015     0.015     2.459   276.870     0.423     0.002 .00000E+00 0.000E+00 0.000E+00 0.000E+00 0.000E+00 0.000E+00
BIGSUB   1        0    2.12200E+00   351.600     0.000   144.212    99.327   101.491     4.635    65.780     3.565   246.768     0.645     0.720     0.088     0.029     0.001     0.071   177.264     0.169     0.001 .00000E+00 0.000E+00 0.000E+00 0.000E+00 0.000E+00 0.000E+00
BIGSUB   2        0    2.11502E+00   351.600     0.000   144.255    98.933    94.330     3.268    70.565     2.097   247.089     0.665     0.794     0.097     0.000     0.000     0.079   174.314     0.007     0.000 .00000E+00 0.000E+00 0.000E+00 0.000E+00 0.000E+00 0.000E+00
BIGSUB   3        0    2.24799E+00   351.600     0.000   144.137    99.618   103.809     7.921    69.867     6.251   246.277     0.393     0.718     0.088     0.386     0.002     0.070   169.883     0.751     0.001 .00000E+00 0.000E+00 0.000E+00 0.000E+00 0.000E+00 0.000E+00
BIGSUB   1        0    3.12200E+00   222.800     0.000   167.231   129.834    65.342     0.995    34.960     3.664   135.865     0.031     0.038     0.005     0.016     0.000     0.004    97.048     0.028     0.000 .00000E+00 0.000E+00 0.000E+00 0.000E+00 0.000E+00 0.000E+00
BIGSUB   2        0    3.11502E+00   222.800     0.000   167.254   129.005    58.079     0.682    37.181     2.241   135.536     0.032     0.039     0.005     0.000     0.000     0.004    95.977     0.002     0.000 .00000E+00 0.000E+00 0.000E+00 0.000E+00 0.000E+00 0.000E+00
BIGSUB   3        0    3.24799E+00   222.800     0.000   167.190   131.442    67.794     1.885    36.763     6.734   136.260     0.020     0.044     0.005     0.067     0.001     0.004    92.431     0.099     0.001 .00000E+00 0.000E+00 0.000E+00 0.000E+00 0.000E+00 0.000E+00
BIGSUB   1        0    4.12200E+00   466.600     0.000   131.825   116.383   102.484     3.886    59.443     1.445   300.189     0.036     0.043     0.005     0.002     0.001     0.004   239.123     0.049     0.000 .00000E+00 0.000E+00 0.000E+00 0.000E+00 0.000E+00 0.000E+00
BIGSUB   2        0    4.11502E+00   466.600     0.000   131.815   115.859    94.862     2.550    63.107     1.253   302.386     0.037     0.044     0.005     0.002     0.001     0.004   237.900     0.048     0.000 .00000E+00 0.000E+00 0.000E+00 0.000E+00 0.000E+00 0.000E+00
BIGSUB   3        0    4.24799E+00   466.600     0.000   131.843   117.208   105.196     7.361    65.394     3.686   298.440     0.023     0.051     0.006     0.003     0.003     0.004   229.054     0.052     0.000 .00000E+00 0.000E+00 0.000E+00 0.000E+00 0.000E+00 0.000E+00
BIGSUB   1        0    5.12200E+00   221.200     0.000   141.378    78.041   101.289     1.629    36.568     2.350   154.887     0.041     0.045     0.006     0.004     0.001     0.004   115.795     0.130     0.000 .00000E+00 0.000E+00 0.000E+00 0.000E+00 0.000E+00 0.000E+00
BIGSUB   2        0    5.11502E+00   221.200     0.000   141.313    76.721    94.010     1.128    38.665     1.561   155.292     0.042     0.046     0.006     0.005     0.001     0.004   114.943     0.129     0.000 .00000E+00 0.000E+00 0.000E+00 0.000E+00 0.000E+00 0.000E+00
BIGSUB   3        0    5.24799E+00   221.200     0.000   141.492    81.514   102.809     2.954    37.672     4.433   153.102     0.025     0.042     0.005     0.005     0.002     0.004   110.691     0.126     0.000 .00000E+00 0.000E+00 0.000E+00 0.000E+00 0.000E+00 0.000E+00
BIGSUB   1        0    6.12200E+00   204.500     0.000   138.174    81.997    93.840     1.753    28.523     2.229   131.588     0.035     0.041     0.005     0.003     0.001     0.004   100.674     0.111     0.000 .00000E+00 0.000E+00 0.000E+00 0.000E+00 0.000E+00 0.000E+00
BIGSUB   2        0    6.11502E+00   204.500     0.000   138.096    81.902    86.530     1.078    30.293     1.626   131.747     0.036     0.043     0.005     0.004     0.001     0.004    99.715     0.108     0.000 .00000E+00 0.000E+00 0.000E+00 0.000E+00 0.000E+00 0.000E+00
BIGSUB   3        0    6.24799E+00   204.500     0.000   138.311    80.804    96.566     3.477    29.951     4.419   132.114     0.021     0.039     0.005     0.005     0.002     0.003    97.460     0.117     0.000 .00000E+00 0.000E+00 0.000E+00 0.000E+00 0.000E+00 0.000E+00
BIGSUB   1        0    7.12200E+00   729.100     0.000   111.594    64.846   107.557     8.524   430.974     1.855   624.013     2.101     2.283     0.283     0.013     0.019     0.213   191.025     0.282     0.000 .00000E+00 0.000E+00 0.000E+00 0.000E+00 0.000E+00 0.000E+00
BIGSUB   2        0    7.11502E+00   729.100     0.000   111.576    64.426   100.372     6.189   441.006     1.197   627.062     2.133     2.332     0.289     0.012     0.016     0.218   184.751     0.275     0.000 .00000E+00 0.000E+00 0.000E+00 0.000E+00 0.000E+00 0.000E+00
BIGSUB   3        0    7.24799E+00   729.100     0.000   111.627    65.825   109.915    13.140   435.225     3.719   621.955     1.271     2.035     0.252     0.019     0.029     0.187   182.730     0.277     0.000 .00000E+00 0.000E+00 0.000E+00 0.000E+00 0.000E+00 0.000E+00
BIGSUB   1        0    8.12200E+00   116.200     0.000   134.728    73.492    89.228     1.392     3.345     3.218    82.517     0.028     0.025     0.003     0.000     0.000     0.002    75.772     0.072     0.000 .00000E+00 0.000E+00 0.000E+00 0.000E+00 0.000E+00 0.000E+00
BIGSUB   2        0    8.11502E+00   116.200     0.000   134.736    72.578    82.398     1.141     3.510     1.874    80.792     0.029     0.028     0.004     0.000     0.000     0.003    75.281     0.073     0.000 .00000E+00 0.000E+00 0.000E+00 0.000E+00 0.000E+00 0.000E+00
BIGSUB   3        0    8.24799E+00   116.200     0.000   134.713    75.720    90.730     1.952     3.811     5.622    81.970     0.017     0.024     0.003     0.001     0.000     0.002    72.226     0.068     0.001 .00000E+00 0.000E+00 0.000E+00 0.000E+00 0.000E+00 0.000E+00
BIGSUB   1        0    9.12200E+00   109.600     0.000   137.741    56.580    86.633     0.096     7.674     1.401    57.584     0.210     0.181     0.022     0.001     0.000     0.017    48.336     0.056     0.000 .00000E+00 0.000E+00 0.000E+00 0.000E+00 0.000E+00 0.000E+00
BIGSUB   2        0    9.11502E+00   109.600     0.000   137.800    55.616    79.988     0.010     8.333     0.846    57.853     0.217     0.202     0.025     0.001     0.000     0.019    48.551     0.056     0.000 .00000E+00 0.000E+00 0.000E+00 0.000E+00 0.000E+00 0.000E+00
BIGSUB   3        0    9.24799E+00   109.600     0.000   137.638    58.778    87.676     0.004     8.227     2.452    57.072     0.127     0.172     0.021     0.002     0.000     0.016    46.104     0.054     0.000 .00000E+00 0.000E+00 0.000E+00 0.000E+00 0.000E+00 0.000E+00
BIGSUB   1        0   10.12200E+00    90.500     0.000   176.614    51.576    76.904     0.078     7.920     0.152    48.659     0.302     0.253     0.031     0.004     0.000     0.024    40.437     0.046     0.000 .00000E+00 0.000E+00 0.000E+00 0.000E+00 0.000E+00 0.000E+00
BIGSUB   2        0   10.11502E+00    90.500     0.000   176.648    50.565    70.591     0.007     8.616     0.087    49.295     0.311     0.280     0.035     0.004     0.000     0.027    40.486     0.045     0.000 .00000E+00 0.000E+00 0.000E+00 0.000E+00 0.000E+00 0.000E+00
BIGSUB   3        0   10.24799E+00    90.500     0.000   176.554    52.790    78.135     0.106     8.395     0.232    47.417     0.183     0.249     0.031     0.004     0.000     0.024    38.544     0.044     0.000 .00000E+00 0.000E+00 0.000E+00 0.000E+00 0.000E+00 0.000E+00
BIGSUB   1        0   11.12200E+00   332.200     0.000   134.812    86.081    94.911     2.519    45.024     0.214   225.555     3.249     2.333     0.287     0.003     0.001     0.223   180.200     0.310     0.000 .00000E+00 0.000E+00 0.000E+00 0.000E+00 0.000E+00 0.000E+00
BIGSUB   2        0   11.11502E+00   332.200     0.000   134.862    86.221    87.260     1.966    48.039     0.293   227.347     3.324     2.493     0.307     0.003     0.001     0.239   178.931     0.311     0.000 .00000E+00 0.000E+00 0.000E+00 0.000E+00 0.000E+00 0.000E+00
BIGSUB   3        0   11.24799E+00   332.200     0.000   134.726    83.843    97.647     5.522    48.359     0.805   223.971     1.960     2.318     0.285     0.005     0.003     0.219   174.613     0.305     0.000 .00000E+00 0.000E+00 0.000E+00 0.000E+00 0.000E+00 0.000E+00
BIGSUB   1        0   12.12200E+00   450.400     0.000   147.439    96.668   103.588     6.289   123.067     1.488   339.660     7.197     5.963     0.733     0.005     0.004     0.572   214.987     0.281     0.000 .00000E+00 0.000E+00 0.000E+00 0.000E+00 0.000E+00 0.000E+00
BIGSUB   2        0   12.11502E+00   450.400     0.000   147.468    96.361    96.326     4.225   129.575     1.198   341.311     7.357     6.287     0.773     0.004     0.003     0.605   210.453     0.264     0.000 .00000E+00 0.000E+00 0.000E+00 0.000E+00 0.000E+00 0.000E+00
BIGSUB   3        0   12.24799E+00   450.400     0.000   147.387    96.558   106.090    10.653   127.885     3.339   337.611     4.342     6.138     0.754     0.020     0.008     0.582   206.184     0.308     0.001 .00000E+00 0.000E+00 0.000E+00 0.000E+00 0.000E+00 0.000E+00
BIGSUB   1        0 2014.12200E+00  3844.299     0.000  1708.586  1030.758   103.588    43.180  1001.530    24.975  2798.650    31.928    41.838     5.120     0.085     0.039     4.082  1770.243     1.928     0.003 .00000E+00 0.000E+00 0.000E+00 0.000E+00 0.000E+00 0.000E+00
BIGSUB   2        0 2014.11502E+00  3844.300     0.000  1708.701  1023.785    96.326    30.400  1046.223    16.370  2808.299    32.643    44.000     5.385     0.039     0.033     4.300  1744.365     1.691     0.002 .00000E+00 0.000E+00 0.000E+00 0.000E+00 0.000E+00 0.000E+00
BIGSUB   3        0 2014.24799E+00  3844.300     0.000  1708.385  1040.515   106.090    72.805  1035.771    47.773  2783.605    19.280    36.981     4.527     0.531     0.066     3.574  1696.791     2.624     0.005 .00000E+00 0.000E+00 0.000E+00 0.000E+00 0.000E+00 0.000E+00
BIGSUB   1        0    1.12200E+00   682.500     0.000   139.137   101.199   105.203    15.941   220.179     3.997   559.432    33.662    38.633     4.716     0.005     0.012     3.782   335.089     0.450     0.001 .00000E+00 0.000E+00 0.000E+00 0.000E+00 0.000E+00 0.000E+00
BIGSUB   2        0    1.11502E+00   682.500     0.000   139.200   101.076    98.025    12.373   231.526     2.448   561.646    34.367    40.208     4.909     0.004     0.011     3.944   327.553     0.434     0.001 .00000E+00 0.000E+00 0.000E+00 0.000E+00 0.000E+00 0.000E+00
BIGSUB   3        0    1.24799E+00   682.500     0.000   139.025   101.039   107.712    24.151   227.072     7.269   555.152    20.302    33.270     4.064     0.018     0.020     3.232   320.526     0.475     0.002 .00000E+00 0.000E+00 0.000E+00 0.000E+00 0.000E+00 0.000E+00
BIGSUB   1        0    2.12200E+00   310.400     0.000   148.678   109.849    87.333     4.251    61.887     5.499   229.680    10.772     4.814     0.588     0.008     0.002     0.471   162.063     0.194     0.002 .00000E+00 0.000E+00 0.000E+00 0.000E+00 0.000E+00 0.000E+00
BIGSUB   2        0    2.11502E+00   310.400     0.000   148.743   109.462    80.251     3.095    65.632     3.162   228.543    11.006     5.050     0.616     0.000     0.001     0.496   159.579     0.067     0.001 .00000E+00 0.000E+00 0.000E+00 0.000E+00 0.000E+00 0.000E+00
BIGSUB   3        0    2.24799E+00   310.400     0.000   148.564   110.443    89.441     7.116    64.956     9.739   230.556     6.503     5.150     0.629     0.214     0.004     0.499   155.486     0.647     0.003 .00000E+00 0.000E+00 0.000E+00 0.000E+00 0.000E+00 0.000E+00
BIGSUB   1        0    3.12200E+00   174.400     0.000   136.391    98.581    81.703     0.130     5.205     4.758    86.054     0.003     0.002     0.000     0.000     0.000     0.000    75.811     0.010     0.001 .00000E+00 0.000E+00 0.000E+00 0.000E+00 0.000E+00 0.000E+00
BIGSUB   2        0    3.11502E+00   174.400     0.000   136.437    97.748    74.302     0.010     5.684     2.742    85.230     0.003     0.002     0.000     0.000     0.000     0.000    76.597     0.001     0.000 .00000E+00 0.000E+00 0.000E+00 0.000E+00 0.000E+00 0.000E+00
BIGSUB   3        0    3.24799E+00   174.400     0.000   136.310   100.445    84.755     0.006     6.358     8.522    87.321     0.002     0.003     0.000     0.006     0.000     0.000    71.989     0.040     0.001 .00000E+00 0.000E+00 0.000E+00 0.000E+00 0.000E+00 0.000E+00
BIGSUB   1        0    4.12200E+00   364.500     0.000   144.784    98.561    91.051     1.799   101.560     1.075   256.358     0.117     0.087     0.011     0.001     0.002     0.008   153.485     0.025     0.000 .00000E+00 0.000E+00 0.000E+00 0.000E+00 0.000E+00 0.000E+00
BIGSUB   2        0    4.11502E+00   364.500     0.000   144.777    97.499    83.388     1.471   104.588     1.084   257.965     0.118     0.079     0.010     0.000     0.001     0.007   152.116     0.023     0.000 .00000E+00 0.000E+00 0.000E+00 0.000E+00 0.000E+00 0.000E+00
BIGSUB   3        0    4.24799E+00   364.500     0.000   144.796   100.957    92.693     3.878   104.877     3.299   255.654     0.074     0.120     0.015     0.002     0.004     0.010   147.091     0.028     0.000 .00000E+00 0.000E+00 0.000E+00 0.000E+00 0.000E+00 0.000E+00
BIGSUB   1        0    5.12200E+00   421.400     0.000   126.032    88.723   103.345     6.756    94.654     2.214   315.577     0.116     0.092     0.012     0.008     0.002     0.008   218.487     0.189     0.000 .00000E+00 0.000E+00 0.000E+00 0.000E+00 0.000E+00 0.000E+00
BIGSUB   2        0    5.11502E+00   421.400     0.000   125.974    88.208    96.083     4.754    99.884     1.491   316.910     0.119     0.094     0.012     0.009     0.002     0.008   215.370     0.188     0.000 .00000E+00 0.000E+00 0.000E+00 0.000E+00 0.000E+00 0.000E+00
BIGSUB   3        0    5.24799E+00   421.400     0.000   126.133    90.052   105.833    10.737    98.045     4.060   311.412     0.072     0.110     0.014     0.010     0.004     0.009   208.942     0.188     0.000 .00000E+00 0.000E+00 0.000E+00 0.000E+00 0.000E+00 0.000E+00
BIGSUB   1        0    6.12200E+00   230.400     0.000   162.413    71.421    99.391     2.906    42.730     3.026   162.575     0.077     0.063     0.008     0.009     0.001     0.006   116.603     0.129     0.000 .00000E+00 0.000E+00 0.000E+00 0.000E+00 0.000E+00 0.000E+00
BIGSUB   2        0    6.11502E+00   230.400     0.000   162.304    71.294    91.832     2.032    46.063     1.872   162.673     0.079     0.070     0.009     0.009     0.001     0.006   114.579     0.124     0.000 .00000E+00 0.000E+00 0.000E+00 0.000E+00 0.000E+00 0.000E+00
BIGSUB   3        0    6.24799E+00   230.400     0.000   162.602    70.080   102.353     5.298    45.402     5.396   163.591     0.047     0.073     0.009     0.014     0.002     0.006   112.439     0.137     0.000 .00000E+00 0.000E+00 0.000E+00 0.000E+00 0.000E+00 0.000E+00
BIGSUB   1        0    7.12200E+00   101.300     0.000   169.802    71.101    81.464     0.293     2.401     1.905    51.211     0.004     0.003     0.000     0.001     0.000     0.000    46.695     0.039     0.000 .00000E+00 0.000E+00 0.000E+00 0.000E+00 0.000E+00 0.000E+00
BIGSUB   2        0    7.11502E+00   101.300     0.000   169.710    70.284    74.418     0.224     2.670     1.358    50.973     0.004     0.004     0.001     0.001     0.000     0.000    46.792     0.037     0.000 .00000E+00 0.000E+00 0.000E+00 0.000E+00 0.000E+00 0.000E+00
BIGSUB   3        0    7.24799E+00   101.300     0.000   169.964    72.326    82.937     1.034     3.133     4.239    53.166     0.002     0.004     0.000     0.002     0.000     0.000    45.444     0.047     0.000 .00000E+00 0.000E+00 0.000E+00 0.000E+00 0.000E+00 0.000E+00
BIGSUB   1        0    8.12200E+00   171.700     0.000   171.890    58.467    76.272     0.975    35.391     0.653   118.329     0.225     0.207     0.026     0.003     0.001     0.020    82.107     0.129     0.000 .00000E+00 0.000E+00 0.000E+00 0.000E+00 0.000E+00 0.000E+00
BIGSUB   2        0    8.11502E+00   171.700     0.000   171.819    57.253    69.413     0.708    37.385     0.480   119.402     0.230     0.223     0.028     0.003     0.001     0.021    81.408     0.130     0.000 .00000E+00 0.000E+00 0.000E+00 0.000E+00 0.000E+00 0.000E+00
BIGSUB   3        0    8.24799E+00   171.700     0.000   172.014    61.328    76.536     1.846    36.769     1.509   116.782     0.136     0.215     0.027     0.003     0.002     0.020    78.203     0.122     0.000 .00000E+00 0.000E+00 0.000E+00 0.000E+00 0.000E+00 0.000E+00
BIGSUB   1        0    9.12200E+00    30.500     0.000   151.139    29.716    67.653     0.000     0.000     0.141     9.675     0.000     0.000     0.000     0.000     0.000     0.000     9.394     0.021     0.000 .00000E+00 0.000E+00 0.000E+00 0.000E+00 0.000E+00 0.000E+00
BIGSUB   2        0    9.11502E+00    30.500     0.000   151.151    28.639    61.707     0.000     0.000     0.236     9.896     0.000     0.000     0.000     0.000     0.000     0.000     9.558     0.023     0.000 .00000E+00 0.000E+00 0.000E+00 0.000E+00 0.000E+00 0.000E+00
BIGSUB   3        0    9.24799E+00    30.500     0.000   151.118    31.539    66.604     0.000     0.007     0.640     9.763     0.000     0.000     0.000     0.000     0.000     0.000     8.877     0.019     0.000 .00000E+00 0.000E+00 0.000E+00 0.000E+00 0.000E+00 0.000E+00
BIGSUB   1        0   10.12200E+00   211.100     0.000   148.174    64.499    76.984     0.916    25.425     0.125   136.188     0.633     0.492     0.061     0.003     0.001     0.048   110.524     0.200     0.000 .00000E+00 0.000E+00 0.000E+00 0.000E+00 0.000E+00 0.000E+00
BIGSUB   2        0   10.11502E+00   211.100     0.000   148.179    64.077    70.044     0.746    27.292     0.181   137.792     0.649     0.549     0.068     0.003     0.001     0.053   110.236     0.200     0.000 .00000E+00 0.000E+00 0.000E+00 0.000E+00 0.000E+00 0.000E+00
BIGSUB   3        0   10.24799E+00   211.100     0.000   148.165    64.568    77.492     1.988    26.895     0.468   133.939     0.383     0.559     0.069     0.004     0.001     0.053   106.378     0.196     0.000 .00000E+00 0.000E+00 0.000E+00 0.000E+00 0.000E+00 0.000E+00
BIGSUB   1        0   11.12200E+00   541.900     0.000   148.973    71.867   101.712     7.439   186.829     0.242   435.903    14.144     8.265     1.020     0.003     0.005     0.805   248.741     0.391     0.000 .00000E+00 0.000E+00 0.000E+00 0.000E+00 0.000E+00 0.000E+00
BIGSUB   2        0   11.11502E+00   541.900     0.000   148.997    71.932    94.478     5.217   195.069     0.280   438.484    14.435     8.420     1.039     0.003     0.004     0.825   243.069     0.379     0.000 .00000E+00 0.000E+00 0.000E+00 0.000E+00 0.000E+00 0.000E+00
BIGSUB   3        0   11.24799E+00   541.900     0.000   148.931    69.967   104.313    11.852   191.966     0.796   432.039     8.531     9.691     1.191     0.005     0.009     0.922   239.117     0.390     0.000 .00000E+00 0.000E+00 0.000E+00 0.000E+00 0.000E+00 0.000E+00
BIGSUB   1        0   12.12200E+00   597.700     0.000   160.164    80.210   105.866     9.723   269.478     2.468   502.475    30.534     7.092     0.872     0.003     0.006     0.685   230.407     0.290     0.001 .00000E+00 0.000E+00 0.000E+00 0.000E+00 0.000E+00 0.000E+00
BIGSUB   2        0   12.11502E+00   597.700     0.000   160.168    79.806    98.683     7.254   279.240     1.640   504.517    31.104     6.627     0.816     0.002     0.004     0.649   223.549     0.273     0.000 .00000E+00 0.000E+00 0.000E+00 0.000E+00 0.000E+00 0.000E+00
BIGSUB   3        0   12.24799E+00   597.700     0.000   160.157    80.456   108.299    14.960   274.688     4.452   499.413    18.436     9.451     1.161     0.014     0.015     0.894   220.064     0.320     0.001 .00000E+00 0.000E+00 0.000E+00 0.000E+00 0.000E+00 0.000E+00
BIGSUB   1        0 2015.12200E+00  3837.800     0.000  1807.575   944.195   105.866    51.129  1045.737    26.102  2863.456    90.286    59.751     7.314     0.043     0.032     5.834  1789.406     2.066     0.004 .00000E+00 0.000E+00 0.000E+00 0.000E+00 0.000E+00 0.000E+00
BIGSUB   2        0 2015.11502E+00  3837.800     0.000  1807.459   937.279    98.683    37.883  1095.032    16.974  2874.031    92.115    61.325     7.508     0.035     0.026     6.011  1760.404     1.879     0.003 .00000E+00 0.000E+00 0.000E+00 0.000E+00 0.000E+00 0.000E+00
BIGSUB   3        0 2015.24799E+00  3837.800     0.000  1807.777   953.200   108.299    82.866  1080.169    50.389  2848.787    54.488    58.645     7.179     0.292     0.063     5.647  1714.557     2.608     0.009 .00000E+00 0.000E+00 0.000E+00 0.000E+00 0.000E+00 0.000E+00
BIGSUB   1        0    1.12200E+00   122.100     0.000   179.134    84.181    80.977     1.020     4.676     4.554    72.965     0.754     0.820     0.100     0.000     0.000     0.081    63.547     0.041     0.001 .00000E+00 0.000E+00 0.000E+00 0.000E+00 0.000E+00 0.000E+00
BIGSUB   2        0    1.11502E+00   122.100     0.000   179.151    83.475    73.920     0.839     5.128     2.733    71.663     0.779     0.872     0.106     0.000     0.000     0.086    63.665     0.039     0.001 .00000E+00 0.000E+00 0.000E+00 0.000E+00 0.000E+00 0.000E+00
BIGSUB   3        0    1.24799E+00   122.100     0.000   179.105    84.845    83.731     1.696     5.403     7.799    74.345     0.458     0.628     0.077     0.002     0.000     0.062    60.836     0.050     0.002 .00000E+00 0.000E+00 0.000E+00 0.000E+00 0.000E+00 0.000E+00
BIGSUB   1        0    2.12200E+00   182.200     0.000   176.445    91.291    74.886     0.199     5.144     2.559    99.223     0.007     0.015     0.002     0.001     0.000     0.001    91.335     0.130     0.000 .00000E+00 0.000E+00 0.000E+00 0.000E+00 0.000E+00 0.000E+00
BIGSUB   2        0    2.11502E+00   182.200     0.000   176.418    90.636    67.271     0.021     5.646     1.761    99.762     0.007     0.015     0.002     0.000     0.000     0.001    92.219     0.004     0.000 .00000E+00 0.000E+00 0.000E+00 0.000E+00 0.000E+00 0.000E+00
BIGSUB   3        0    2.24799E+00   182.200     0.000   176.492    92.095    79.237     0.004     7.188     5.000    99.589     0.004     0.013     0.002     0.151     0.000     0.001    87.102     0.624     0.001 .00000E+00 0.000E+00 0.000E+00 0.000E+00 0.000E+00 0.000E+00
BIGSUB   1        0    3.12200E+00   302.600     0.000   136.393   100.890    91.439     0.826    40.593     0.546   183.554     0.026     0.047     0.006     0.001     0.001     0.004   142.243     0.014     0.000 .00000E+00 0.000E+00 0.000E+00 0.000E+00 0.000E+00 0.000E+00
BIGSUB   2        0    3.11502E+00   302.600     0.000   136.461    99.900    82.753     1.041    42.559     0.596   185.412     0.027     0.046     0.006     0.000     0.001     0.004   142.131     0.004     0.000 .00000E+00 0.000E+00 0.000E+00 0.000E+00 0.000E+00 0.000E+00
BIGSUB   3        0    3.24799E+00   302.600     0.000   136.276   102.628    94.862     2.923    44.033     1.647   181.905     0.017     0.042     0.005     0.021     0.002     0.004   135.949     0.057     0.000 .00000E+00 0.000E+00 0.000E+00 0.000E+00 0.000E+00 0.000E+00
BIGSUB   1        0    4.12200E+00   986.500     0.000    98.977    79.811   108.374    23.168   405.245     2.624   853.047     0.216     0.645     0.079     0.010     0.013     0.059   445.004     0.112     0.000 .00000E+00 0.000E+00 0.000E+00 0.000E+00 0.000E+00 0.000E+00
BIGSUB   2        0    4.11502E+00   986.500     0.000    98.967    79.424   101.194    17.500   422.500     1.762   857.618     0.219     0.631     0.078     0.010     0.011     0.059   433.227     0.108     0.000 .00000E+00 0.000E+00 0.000E+00 0.000E+00 0.000E+00 0.000E+00
BIGSUB   3        0    4.24799E+00   986.500     0.000    98.996    81.096   110.773    34.394   415.679     5.080   845.093     0.136     0.538     0.067     0.015     0.019     0.047   424.048     0.114     0.000 .00000E+00 0.000E+00 0.000E+00 0.000E+00 0.000E+00 0.000E+00
BIGSUB   1        0    5.12200E+00    55.900     0.000   132.533    32.261    79.984     2.292    12.761     6.623    74.815     0.004     0.034     0.004     0.002     0.000     0.003    55.136     0.029     0.000 .00000E+00 0.000E+00 0.000E+00 0.000E+00 0.000E+00 0.000E+00
BIGSUB   2        0    5.11502E+00    55.900     0.000   132.497    31.331    73.734     1.903    13.577     3.834    71.412     0.005     0.034     0.004     0.002     0.000     0.003    53.778     0.028     0.000 .00000E+00 0.000E+00 0.000E+00 0.000E+00 0.000E+00 0.000E+00
BIGSUB   3        0    5.24799E+00    55.900     0.000   132.597    34.008    80.686     3.279    13.298    11.585    77.872     0.003     0.027     0.003     0.002     0.001     0.002    52.525     0.028     0.000 .00000E+00 0.000E+00 0.000E+00 0.000E+00 0.000E+00 0.000E+00
BIGSUB   1        0    6.12200E+00     2.600     0.000   133.400    11.922    70.182     0.000     0.000     4.401     5.162     0.000     0.000     0.000     0.000     0.000     0.000     0.460     0.010     0.000 .00000E+00 0.000E+00 0.000E+00 0.000E+00 0.000E+00 0.000E+00
BIGSUB   2        0    6.11502E+00     2.600     0.000   133.356    11.566    64.280     0.000     0.000     2.505     3.204     0.000     0.000     0.000     0.000     0.000     0.000     0.468     0.010     0.000 .00000E+00 0.000E+00 0.000E+00 0.000E+00 0.000E+00 0.000E+00
BIGSUB   3        0    6.24799E+00     2.600     0.000   133.478    11.701    71.133     0.000     0.000     7.573     8.471     0.000     0.000     0.000     0.000     0.000     0.000     0.434     0.010     0.000 .00000E+00 0.000E+00 0.000E+00 0.000E+00 0.000E+00 0.000E+00
BIGSUB   1        0    7.12200E+00   132.200     0.000   126.304    39.298    81.649     0.111    24.809     1.260    82.866     0.087     0.280     0.034     0.011     0.001     0.026    56.533     0.150     0.000 .00000E+00 0.000E+00 0.000E+00 0.000E+00 0.000E+00 0.000E+00
BIGSUB   2        0    7.11502E+00   132.200     0.000   126.244    38.716    75.091     0.005    26.493     0.738    83.626     0.089     0.287     0.035     0.012     0.001     0.027    56.192     0.143     0.000 .00000E+00 0.000E+00 0.000E+00 0.000E+00 0.000E+00 0.000E+00
BIGSUB   3        0    7.24799E+00   132.200     0.000   126.409    40.982    83.094     0.018    25.309     2.235    81.897     0.053     0.194     0.024     0.011     0.002     0.018    53.947     0.141     0.000 .00000E+00 0.000E+00 0.000E+00 0.000E+00 0.000E+00 0.000E+00
BIGSUB   1        0    8.12200E+00   160.100     0.000   189.251    78.354    79.872     0.155     8.200     0.138    82.968     0.068     0.123     0.015     0.003     0.000     0.012    74.421     0.104     0.000 .00000E+00 0.000E+00 0.000E+00 0.000E+00 0.000E+00 0.000E+00
BIGSUB   2        0    8.11502E+00   160.100     0.000   189.130    76.891    73.662     0.029     9.049     0.013    84.021     0.070     0.129     0.016     0.003     0.000     0.012    74.801     0.100     0.000 .00000E+00 0.000E+00 0.000E+00 0.000E+00 0.000E+00 0.000E+00
BIGSUB   3        0    8.24799E+00   160.100     0.000   189.463    81.548    80.500     0.265     9.106     0.018    80.511     0.041     0.085     0.010     0.003     0.001     0.008    71.069     0.097     0.000 .00000E+00 0.000E+00 0.000E+00 0.000E+00 0.000E+00 0.000E+00
BIGSUB   1        0    9.12200E+00   167.200     0.000   114.504    72.500    84.005     0.193     8.905     0.156    91.158     0.166     0.337     0.041     0.001     0.000     0.032    81.942     0.126     0.000 .00000E+00 0.000E+00 0.000E+00 0.000E+00 0.000E+00 0.000E+00
BIGSUB   2        0    9.11502E+00   167.200     0.000   114.600    71.867    76.534     0.585     9.671     0.151    92.630     0.171     0.355     0.044     0.001     0.000     0.034    82.688     0.127     0.000 .00000E+00 0.000E+00 0.000E+00 0.000E+00 0.000E+00 0.000E+00
BIGSUB   3        0    9.24799E+00   167.200     0.000   114.336    73.336    84.750     1.385     9.888     0.493    89.405     0.101     0.237     0.029     0.001     0.001     0.022    78.784     0.121     0.000 .00000E+00 0.000E+00 0.000E+00 0.000E+00 0.000E+00 0.000E+00
BIGSUB   1        0   10.12200E+00   159.000     0.000   159.850    79.727    85.728     0.167     2.023     0.148    73.048     0.057     0.085     0.010     0.001     0.000     0.008    70.756     0.076     0.000 .00000E+00 0.000E+00 0.000E+00 0.000E+00 0.000E+00 0.000E+00
BIGSUB   2        0   10.11502E+00   159.000     0.000   159.933    79.045    78.171     0.021     2.234     0.066    73.881     0.059     0.091     0.011     0.001     0.000     0.009    71.485     0.072     0.000 .00000E+00 0.000E+00 0.000E+00 0.000E+00 0.000E+00 0.000E+00
BIGSUB   3        0   10.24799E+00   159.000     0.000   159.705    79.350    88.341     0.147     3.092     0.240    71.861     0.036     0.069     0.008     0.002     0.000     0.007    68.334     0.084     0.000 .00000E+00 0.000E+00 0.000E+00 0.000E+00 0.000E+00 0.000E+00
BIGSUB   1        0   11.12200E+00   334.500     0.000   145.092    82.317    85.780     2.862    91.152     0.228   254.455     4.244     6.644     0.813     0.005     0.004     0.631   162.978     0.330     0.000 .00000E+00 0.000E+00 0.000E+00 0.000E+00 0.000E+00 0.000E+00
BIGSUB   2        0   11.11502E+00   334.500     0.000   145.136    82.153    77.770     2.121    94.805     0.393   255.934     4.323     6.785     0.831     0.005     0.003     0.646   160.660     0.322     0.000 .00000E+00 0.000E+00 0.000E+00 0.000E+00 0.000E+00 0.000E+00
BIGSUB   3        0   11.24799E+00   334.500     0.000   145.016    80.592    88.581     5.897    94.950     0.969   253.633     2.564     5.100     0.624     0.008     0.006     0.482   157.555     0.325     0.000 .00000E+00 0.000E+00 0.000E+00 0.000E+00 0.000E+00 0.000E+00
BIGSUB   1        0   12.12200E+00   398.800     0.000   134.245    88.209   102.137     5.680    71.953     0.624   285.962     8.820     8.117     0.993     0.004     0.002     0.774   213.288     0.333     0.000 .00000E+00 0.000E+00 0.000E+00 0.000E+00 0.000E+00 0.000E+00
BIGSUB   2        0   12.11502E+00   398.800     0.000   134.310    87.829    94.972     3.587    76.775     1.011   288.043     9.044     8.496     1.039     0.003     0.002     0.812   210.182     0.310     0.000 .00000E+00 0.000E+00 0.000E+00 0.000E+00 0.000E+00 0.000E+00
BIGSUB   3        0   12.24799E+00   398.800     0.000   134.131    88.327   104.494     9.951    76.830     2.631   284.248     5.334     6.686     0.818     0.014     0.005     0.634   204.619     0.369     0.000 .00000E+00 0.000E+00 0.000E+00 0.000E+00 0.000E+00 0.000E+00
BIGSUB   1        0 2016.12200E+00  3003.700     0.000  1726.130   840.761   102.137    36.674   675.462    23.861  2159.224    14.450    17.146     2.098     0.038     0.023     1.632  1457.644     1.456     0.002 .00000E+00 0.000E+00 0.000E+00 0.000E+00 0.000E+00 0.000E+00
BIGSUB   2        0 2016.11502E+00  3003.700     0.000  1726.201   832.834    94.972    27.652   708.437    15.564  2167.206    14.792    17.743     2.171     0.036     0.020     1.693  1441.496     1.268     0.002 .00000E+00 0.000E+00 0.000E+00 0.000E+00 0.000E+00 0.000E+00
BIGSUB   3        0 2016.24799E+00  3003.700     0.000  1726.004   850.510   104.494    59.958   704.777    45.269  2148.830     8.747    13.617     1.667     0.230     0.037     1.286  1395.200     2.020     0.004 .00000E+00 0.000E+00 0.000E+00 0.000E+00 0.000E+00 0.000E+00
BIGSUB   1        0  4.0.12200E+00  3445.524     0.000  1685.349   930.785   102.137    40.565   828.327    23.764  2498.203    46.400    40.522     4.958     0.049     0.029     3.950  1644.032     1.804     0.003 .00000E+00 0.000E+00 0.000E+00 0.000E+00 0.000E+00 0.000E+00
BIGSUB   2        0  4.0.11502E+00  3445.525     0.000  1685.274   922.911    94.972    29.853   867.289    15.649  2508.121    47.403    42.231     5.168     0.035     0.025     4.126  1623.651     1.627     0.002 .00000E+00 0.000E+00 0.000E+00 0.000E+00 0.000E+00 0.000E+00
BIGSUB   3        0  4.0.24799E+00  3445.524     0.000  1685.481   941.103   104.494    67.463   861.039    46.101  2484.821    28.000    36.861     4.512     0.293     0.052     3.556  1574.234     2.299     0.006 .00000E+00 0.000E+00 0.000E+00 0.000E+00 0.000E+00 0.000E+00
