1
    SWAT Dec 23 2016    VER 2016/Rev 664                                                                 0/ 0/   0      0: 0: 0

    General Input/Output section (file.cio):                                        
    2/7/2020 21:48:54 QSWAT Workflow v1.5.2                                         
                                                                                    
         Number of years in run:   12
         Area of watershed:        0.485 km2
1
    SWAT Dec 23 2016    VER 2016/Rev 664                                            

    General Input/Output section (file.cio):                                        
    2/7/2020 21:48:54 QSWAT Workflow v1.5.2                                         
                                                                                    
Annual Summary for Watershed in year    1 of simulation

UNIT                                    PERCO    TILE                           WATER     SED     NO3     NO3     NO3     NO3        N       P       P
TIME     PREC    SURQ    LATQ     GWQ    LATE       Q     SW       ET     PET   YIELD   YIELD    SURQ    LATQ    PERC    CROP  ORGANIC SOLUBLE ORGANIC TILENO3
         (mm)    (mm)    (mm)    (mm)    (mm)    (mm)    (mm)    (mm)    (mm)    (mm)   (t/ha)  ------------------(kg nutrient/ha)-------------------- (kg/ha)
1
    SWAT Dec 23 2016    VER 2016/Rev 664                                            

    General Input/Output section (file.cio):                                        
    2/7/2020 21:48:54 QSWAT Workflow v1.5.2                                         
                                                                                    
Annual Summary for Watershed in year    2 of simulation

UNIT                                    PERCO    TILE                           WATER     SED     NO3     NO3     NO3     NO3        N       P       P
TIME     PREC    SURQ    LATQ     GWQ    LATE       Q     SW       ET     PET   YIELD   YIELD    SURQ    LATQ    PERC    CROP  ORGANIC SOLUBLE ORGANIC TILENO3
         (mm)    (mm)    (mm)    (mm)    (mm)    (mm)    (mm)    (mm)    (mm)    (mm)   (t/ha)  ------------------(kg nutrient/ha)-------------------- (kg/ha)
1
    SWAT Dec 23 2016    VER 2016/Rev 664                                            

    General Input/Output section (file.cio):                                        
    2/7/2020 21:48:54 QSWAT Workflow v1.5.2                                         
                                                                                    
Annual Summary for Watershed in year    3 of simulation

UNIT                                    PERCO    TILE                           WATER     SED     NO3     NO3     NO3     NO3        N       P       P
TIME     PREC    SURQ    LATQ     GWQ    LATE       Q     SW       ET     PET   YIELD   YIELD    SURQ    LATQ    PERC    CROP  ORGANIC SOLUBLE ORGANIC TILENO3
         (mm)    (mm)    (mm)    (mm)    (mm)    (mm)    (mm)    (mm)    (mm)    (mm)   (t/ha)  ------------------(kg nutrient/ha)-------------------- (kg/ha)
1
    SWAT Dec 23 2016    VER 2016/Rev 664                                            

    General Input/Output section (file.cio):                                        
    2/7/2020 21:48:54 QSWAT Workflow v1.5.2                                         
                                                                                    
Annual Summary for Watershed in year    4 of simulation

UNIT                                    PERCO    TILE                           WATER     SED     NO3     NO3     NO3     NO3        N       P       P
TIME     PREC    SURQ    LATQ     GWQ    LATE       Q     SW       ET     PET   YIELD   YIELD    SURQ    LATQ    PERC    CROP  ORGANIC SOLUBLE ORGANIC TILENO3
         (mm)    (mm)    (mm)    (mm)    (mm)    (mm)    (mm)    (mm)    (mm)    (mm)   (t/ha)  ------------------(kg nutrient/ha)-------------------- (kg/ha)
1
    SWAT Dec 23 2016    VER 2016/Rev 664                                            

    General Input/Output section (file.cio):                                        
    2/7/2020 21:48:54 QSWAT Workflow v1.5.2                                         
                                                                                    
Annual Summary for Watershed in year    5 of simulation

UNIT                                    PERCO    TILE                           WATER     SED     NO3     NO3     NO3     NO3        N       P       P
TIME     PREC    SURQ    LATQ     GWQ    LATE       Q     SW       ET     PET   YIELD   YIELD    SURQ    LATQ    PERC    CROP  ORGANIC SOLUBLE ORGANIC TILENO3
         (mm)    (mm)    (mm)    (mm)    (mm)    (mm)    (mm)    (mm)    (mm)    (mm)   (t/ha)  ------------------(kg nutrient/ha)-------------------- (kg/ha)
1
    SWAT Dec 23 2016    VER 2016/Rev 664                                            

    General Input/Output section (file.cio):                                        
    2/7/2020 21:48:54 QSWAT Workflow v1.5.2                                         
                                                                                    
Annual Summary for Watershed in year    6 of simulation

UNIT                                    PERCO    TILE                           WATER     SED     NO3     NO3     NO3     NO3        N       P       P
TIME     PREC    SURQ    LATQ     GWQ    LATE       Q     SW       ET     PET   YIELD   YIELD    SURQ    LATQ    PERC    CROP  ORGANIC SOLUBLE ORGANIC TILENO3
         (mm)    (mm)    (mm)    (mm)    (mm)    (mm)    (mm)    (mm)    (mm)    (mm)   (t/ha)  ------------------(kg nutrient/ha)-------------------- (kg/ha)
1
    SWAT Dec 23 2016    VER 2016/Rev 664                                            

    General Input/Output section (file.cio):                                        
    2/7/2020 21:48:54 QSWAT Workflow v1.5.2                                         
                                                                                    
Annual Summary for Watershed in year    7 of simulation

UNIT                                    PERCO    TILE                           WATER     SED     NO3     NO3     NO3     NO3        N       P       P
TIME     PREC    SURQ    LATQ     GWQ    LATE       Q     SW       ET     PET   YIELD   YIELD    SURQ    LATQ    PERC    CROP  ORGANIC SOLUBLE ORGANIC TILENO3
         (mm)    (mm)    (mm)    (mm)    (mm)    (mm)    (mm)    (mm)    (mm)    (mm)   (t/ha)  ------------------(kg nutrient/ha)-------------------- (kg/ha)
1
    SWAT Dec 23 2016    VER 2016/Rev 664                                            

    General Input/Output section (file.cio):                                        
    2/7/2020 21:48:54 QSWAT Workflow v1.5.2                                         
                                                                                    
Annual Summary for Watershed in year    8 of simulation

UNIT                                    PERCO    TILE                           WATER     SED     NO3     NO3     NO3     NO3        N       P       P
TIME     PREC    SURQ    LATQ     GWQ    LATE       Q     SW       ET     PET   YIELD   YIELD    SURQ    LATQ    PERC    CROP  ORGANIC SOLUBLE ORGANIC TILENO3
         (mm)    (mm)    (mm)    (mm)    (mm)    (mm)    (mm)    (mm)    (mm)    (mm)   (t/ha)  ------------------(kg nutrient/ha)-------------------- (kg/ha)
1
    SWAT Dec 23 2016    VER 2016/Rev 664                                            

    General Input/Output section (file.cio):                                        
    2/7/2020 21:48:54 QSWAT Workflow v1.5.2                                         
                                                                                    
Annual Summary for Watershed in year    9 of simulation

UNIT                                    PERCO    TILE                           WATER     SED     NO3     NO3     NO3     NO3        N       P       P
TIME     PREC    SURQ    LATQ     GWQ    LATE       Q     SW       ET     PET   YIELD   YIELD    SURQ    LATQ    PERC    CROP  ORGANIC SOLUBLE ORGANIC TILENO3
         (mm)    (mm)    (mm)    (mm)    (mm)    (mm)    (mm)    (mm)    (mm)    (mm)   (t/ha)  ------------------(kg nutrient/ha)-------------------- (kg/ha)
    1  576.60  151.92  300.58    5.38   16.92    0.00  107.48   87.59  117.36  458.14   17.47    0.01    0.45    0.38    0.00    26.25    0.01    3.21    0.00
    2  144.70   39.88   89.67    6.48    5.20    0.00   58.73   68.71  106.82  136.34    8.83    0.00    0.13    0.12    7.04     6.31    0.00    0.77    0.00
    3   93.80    0.16   38.21    4.77    0.00    0.00   29.73   84.42  115.41   43.49    0.00    0.01    0.09    0.00    3.78     0.00    0.00    0.00    0.00
    4  238.90   27.97  106.73    0.76    0.05    0.00   57.22   61.63  112.39  135.75    0.02    0.00    0.03    0.00    0.38     0.03    0.00    0.00    0.00
    5  134.70    1.69   75.68    0.09    0.04    0.00   53.21   75.57  133.60   77.70    0.00    0.00    0.05    0.00    0.01     0.00    0.00    0.00    0.00
    6  299.10   94.17  127.39    0.06    0.50    0.00   70.56   59.77   88.51  221.79    0.23    0.00    0.19    0.00    0.01     0.25    0.00    0.03    0.00
    7  248.80   12.74  149.44    0.52    3.12    0.00   80.53   73.77  102.98  162.84    0.04    0.02    0.21    0.04    0.52     0.05    0.00    0.01    0.00
    8  467.80  148.36  223.77    2.34    7.78    0.00   95.68   72.54  112.59  374.61    1.44    0.01    0.21    0.11    0.12     1.74    0.01    0.21    0.00
    9  166.70   17.20   75.88    3.93    1.17    0.00   85.69   82.72  150.36   97.17    0.42    0.00    0.05    0.02    0.07     0.38    0.00    0.05    0.00
   10  234.50   48.79   94.95    2.62    1.26    0.00   93.41   75.37  163.55  146.52    2.09    0.01    0.10    0.03    0.03     1.59    0.00    0.20    0.00
   11  180.90   24.91   82.28    0.76    0.90    0.00   92.82   74.10  149.94  108.10    1.94    0.00    0.10    0.02    0.00     1.23    0.00    0.15    0.00
   12  309.80   46.45  156.77    1.54    4.20    0.00   97.95   95.49  145.84  204.89    6.77    0.01    0.23    0.11    0.00     3.49    0.00    0.43    0.00

 2013 3096.30  614.23 1521.35   29.26   41.16    0.00   97.95  911.66 1499.35 2167.34   39.26    0.07    1.84    0.83   11.98    41.31    0.03    5.05    0.00
1
    SWAT Dec 23 2016    VER 2016/Rev 664                                            

    General Input/Output section (file.cio):                                        
    2/7/2020 21:48:54 QSWAT Workflow v1.5.2                                         
                                                                                    
Annual Summary for Watershed in year   10 of simulation

UNIT                                    PERCO    TILE                           WATER     SED     NO3     NO3     NO3     NO3        N       P       P
TIME     PREC    SURQ    LATQ     GWQ    LATE       Q     SW       ET     PET   YIELD   YIELD    SURQ    LATQ    PERC    CROP  ORGANIC SOLUBLE ORGANIC TILENO3
         (mm)    (mm)    (mm)    (mm)    (mm)    (mm)    (mm)    (mm)    (mm)    (mm)   (t/ha)  ------------------(kg nutrient/ha)-------------------- (kg/ha)
    1  549.60  163.46  281.54    4.46   13.91    0.00   99.25   96.10  142.81  449.64   14.49    0.01    0.40    0.29    0.00    27.83    0.01    3.40    0.00
    2  351.60   69.01  172.79    4.59    5.99    0.00  100.98   99.38  144.18  246.59    0.52    0.20    0.43    0.03    8.32     0.74    0.00    0.09    0.00
    3  222.80   36.41   94.43    4.90    1.38    0.00   64.87  130.46  167.22  135.99    0.03    0.04    0.06    0.00    3.75     0.04    0.00    0.01    0.00
    4  466.60   63.36  233.68    2.55    5.35    0.00  102.06  116.68  131.83  299.82    0.03    0.00    0.05    0.01    0.45     0.05    0.00    0.01    0.00
    5  221.20   37.63  112.98    3.23    2.19    0.00  100.34   79.50  141.42  154.07    0.03    0.00    0.13    0.01    0.01     0.04    0.00    0.01    0.00
    6  204.50   29.67   98.80    3.21    2.47    0.00   93.50   81.36  138.23  131.89    0.03    0.00    0.11    0.02    0.01     0.04    0.00    0.00    0.00
    7  729.10  435.57  185.30    2.65   10.33    0.00  107.06   65.25  111.61  623.68    1.68    0.02    0.28    0.10    0.42     2.17    0.02    0.27    0.00
    8  116.20    3.58   73.84    4.13    1.62    0.00   88.38   74.41  134.72   81.83    0.02    0.00    0.07    0.01    0.13     0.03    0.00    0.00    0.00
    9  109.60    8.11   47.25    1.81    0.03    0.00   85.59   57.48  137.70   57.39    0.17    0.00    0.05    0.00    0.10     0.18    0.00    0.02    0.00
   10   90.50    8.33   39.48    0.18    0.08    0.00   76.04   51.96  176.59   48.17    0.24    0.00    0.04    0.00    0.08     0.26    0.00    0.03    0.00
   11  332.20   47.44  177.04    0.53    3.92    0.00   94.50   84.97  134.78  225.17    2.61    0.00    0.31    0.10    0.00     2.36    0.00    0.29    0.00
   12  450.40  127.07  209.41    2.37    8.03    0.00  103.15   96.54  147.42  339.00    5.78    0.01    0.29    0.18    0.00     6.13    0.01    0.75    0.00

 2014 3844.30 1029.63 1726.55   34.59   55.30    0.00  103.15 1034.09 1708.51 2793.25   25.63    0.30    2.23    0.77   13.27    39.87    0.05    4.88    0.00
1
    SWAT Dec 23 2016    VER 2016/Rev 664                                            

    General Input/Output section (file.cio):                                        
    2/7/2020 21:48:54 QSWAT Workflow v1.5.2                                         
                                                                                    
Annual Summary for Watershed in year   11 of simulation

UNIT                                    PERCO    TILE                           WATER     SED     NO3     NO3     NO3     NO3        N       P       P
TIME     PREC    SURQ    LATQ     GWQ    LATE       Q     SW       ET     PET   YIELD   YIELD    SURQ    LATQ    PERC    CROP  ORGANIC SOLUBLE ORGANIC TILENO3
         (mm)    (mm)    (mm)    (mm)    (mm)    (mm)    (mm)    (mm)    (mm)    (mm)   (t/ha)  ------------------(kg nutrient/ha)-------------------- (kg/ha)
    1  682.50  226.40  325.86    5.30   19.29    0.00  104.78  101.09  139.09  557.77   27.00    0.01    0.46    0.42    0.00    36.26    0.02    4.43    0.00
    2  310.40   64.34  158.11    7.11    5.44    0.00   86.73  110.06  148.64  229.86    8.64    0.11    0.40    0.09    8.51     5.04    0.00    0.62    0.00
    3  174.40    5.91   74.04    6.20    0.04    0.00   81.51   99.34  136.36   86.51    0.00    0.00    0.02    0.00    2.95     0.00    0.00    0.00    0.00
    4  364.50  103.97  149.89    2.21    2.78    0.00   90.07   99.53  144.79  256.38    0.10    0.00    0.03    0.00    0.37     0.10    0.00    0.01    0.00
    5  421.40   97.63  212.87    2.99    8.32    0.00  102.89   89.28  126.07  313.76    0.09    0.01    0.19    0.03    0.01     0.10    0.00    0.01    0.00
    6  230.40   44.89  113.99    3.96    3.92    0.00   99.11   70.71  162.48  163.12    0.06    0.01    0.13    0.03    0.01     0.07    0.00    0.01    0.00
    7  101.30    2.84   46.08    2.97    0.66    0.00   80.55   71.53  169.86   52.15    0.00    0.00    0.04    0.01    0.43     0.00    0.00    0.00    0.00
    8  171.70   36.57   79.95    1.05    1.36    0.00   74.78   59.64  171.94  117.79    0.18    0.00    0.13    0.02    0.12     0.21    0.00    0.03    0.00
    9   30.50    0.00    9.17    0.42    0.00    0.00   65.71   30.39  151.13    9.77    0.00    0.00    0.02    0.00    0.08     0.00    0.00    0.00    0.00
   10  211.10   26.62  108.34    0.31    1.42    0.00   75.60   64.43  148.17  135.42    0.51    0.00    0.20    0.03    0.00     0.54    0.00    0.07    0.00
   11  541.90  191.42  242.47    0.53    9.17    0.00  101.33   70.91  148.96  434.54   11.34    0.00    0.39    0.21    0.00     9.03    0.01    1.11    0.00
   12  597.70  274.46  223.49    3.29   11.82    0.00  105.41   80.24  160.16  501.39   24.48    0.01    0.30    0.25    0.00     8.19    0.01    1.01    0.00

 2015 3837.80 1075.04 1744.26   36.36   64.22    0.00  105.41  947.16 1807.65 2858.46   72.42    0.17    2.30    1.09   12.49    59.56    0.05    7.29    0.00
1
    SWAT Dec 23 2016    VER 2016/Rev 664                                            

    General Input/Output section (file.cio):                                        
    2/7/2020 21:48:54 QSWAT Workflow v1.5.2                                         
                                                                                    
Annual Summary for Watershed in year   12 of simulation

UNIT                                    PERCO    TILE                           WATER     SED     NO3     NO3     NO3     NO3        N       P       P
TIME     PREC    SURQ    LATQ     GWQ    LATE       Q     SW       ET     PET   YIELD   YIELD    SURQ    LATQ    PERC    CROP  ORGANIC SOLUBLE ORGANIC TILENO3
         (mm)    (mm)    (mm)    (mm)    (mm)    (mm)    (mm)    (mm)    (mm)    (mm)   (t/ha)  ------------------(kg nutrient/ha)-------------------- (kg/ha)
    1  122.10    5.15   62.19    5.78    1.32    0.00   80.71   84.35  179.12   73.36    0.61    0.00    0.05    0.03    0.00     0.73    0.00    0.09    0.00
    2  182.20    6.31   89.38    3.62    0.06    0.00   75.31   91.55  176.46   99.54    0.01    0.08    0.35    0.00    9.12     0.01    0.00    0.00    0.00
    3  302.60   42.82  139.00    1.12    1.95    0.00   91.13  101.54  136.35  183.15    0.02    0.01    0.03    0.00    3.28     0.04    0.00    0.01    0.00
    4  986.50  414.70  431.50    3.68   27.56    0.00  107.90   80.38   98.98  850.06    0.18    0.01    0.11    0.03    0.30     0.59    0.02    0.07    0.00
    5   55.90   13.20   53.48    8.50    2.70    0.00   78.86   32.93  132.56   75.57    0.00    0.00    0.03    0.01    0.01     0.03    0.00    0.00    0.00
    6    2.60    0.00    0.45    5.57    0.00    0.00   69.27   11.72  133.43    6.39    0.00    0.00    0.01    0.00    0.01     0.00    0.00    0.00    0.00
    7  132.20   25.46   55.13    1.63    0.04    0.00   80.83   40.02  126.34   82.55    0.07    0.01    0.14    0.00    0.45     0.24    0.00    0.03    0.00
    8  160.10    8.86   72.80    0.05    0.18    0.00   78.72   79.64  189.33   81.96    0.05    0.00    0.10    0.00    0.12     0.11    0.00    0.01    0.00
    9  167.20    9.59   80.50    0.33    0.90    0.00   82.61   72.78  114.44   90.61    0.13    0.00    0.12    0.02    0.06     0.29    0.00    0.04    0.00
   10  159.00    2.62   69.69    0.18    0.12    0.00   85.27   79.37  159.80   72.64    0.05    0.00    0.08    0.00    0.01     0.08    0.00    0.01    0.00
   11  334.50   93.96  159.66    0.65    4.24    0.00   85.31   81.40  145.06  254.39    3.40    0.01    0.33    0.11    0.00     5.89    0.00    0.72    0.00
   12  398.80   75.59  208.12    1.74    7.37    0.00  101.64   88.18  134.20  285.58    7.09    0.01    0.35    0.20    0.00     7.48    0.00    0.91    0.00

 2016 3003.70  698.26 1421.89   32.84   46.44    0.00  101.64  843.87 1726.08 2155.80   11.61    0.14    1.70    0.40   13.36    15.48    0.03    1.90    0.00
1
    SWAT Dec 23 2016    VER 2016/Rev 664                                            

    General Input/Output section (file.cio):                                        
    2/7/2020 21:48:54 QSWAT Workflow v1.5.2                                         
                                                                                    
    FINAL VALUES

1
    SWAT Dec 23 2016    VER 2016/Rev 664                                            

    General Input/Output section (file.cio):                                        
    2/7/2020 21:48:54 QSWAT Workflow v1.5.2                                         
                                                                                    
                                            Average Plant Values (kg/ha)

  HRU       1 SUB   1 SWCH  Yld = 25039.1 BIOM =  43099.1
  HRU       2 SUB   1 FRSE  Yld =  3998.1 BIOM =   5711.5
  HRU       3 SUB   1 FRSE  Yld =  4005.7 BIOM =   5722.5
  HRU       4 SUB   1 FRSE  Yld =  5894.6 BIOM =   8420.8
  HRU       5 SUB   1 FRSE  Yld =  5205.0 BIOM =   7435.7
  HRU       6 SUB   1 FRSD  Yld =  5029.3 BIOM =  10473.0
  HRU       7 SUB   2 FRSE  Yld =  5750.6 BIOM =   8215.1
  HRU       8 SUB   2 FRSE  Yld =  5205.8 BIOM =   7436.8
  HRU       9 SUB   2 FRSE  Yld =  5142.7 BIOM =   7346.7
  HRU      10 SUB   3 SWCH  Yld = 24963.8 BIOM =  42980.2
  HRU      11 SUB   3 SWCH  Yld = 22026.7 BIOM =  38388.6
  HRU      12 SUB   3 SWCH  Yld = 25312.2 BIOM =  43551.8
  HRU      13 SUB   3 SWCH  Yld = 16404.1 BIOM =  29112.4
  HRU      14 SUB   3 SWCH  Yld = 23121.1 BIOM =  40126.7
  HRU      15 SUB   3 FRSD  Yld =  5226.9 BIOM =  10885.5
  HRU      16 SUB   3 FRSD  Yld =    40.2 BIOM =     83.1
  HRU      17 SUB   3 FRSD  Yld =  4020.7 BIOM =   8310.6
  HRU      18 SUB   3 FRSE  Yld =  5699.3 BIOM =   8141.8
  HRU      19 SUB   3 FRSE  Yld =  5210.3 BIOM =   7443.2
  HRU      20 SUB   3 FRSE  Yld =    46.0 BIOM =     65.7
  HRU      21 SUB   3 FRSE  Yld =  5934.6 BIOM =   8477.9
  HRU      22 SUB   3 FRSE  Yld =    46.0 BIOM =     65.7
  HRU      23 SUB   3 FRSE  Yld =  4939.6 BIOM =   7056.5

    HRU STATISTICS

                AVE ANNUAL VALUES

   HRU  SUB  SOIL       AREAkm2    CN     AWCmm   USLE_LS  IRRmm  AUTONkh AUTOPkh  MIXEF PRECmm SURQGENmm   GWQmm    ETmm   SEDth  NO3kgh  ORGNkgh BIOMth   YLDth  SURQmm
      1   1   AUA        .144E-02   59.00  165.80    7.94    0.00  146.31    0.00    0.20 3445.52  533.52 1828.73 1047.33    0.19   15.22    2.79   38.50   25.04  533.52
      2   1   AUA        .205E-03   55.00  165.80    0.07    0.00    0.00    0.00    0.20 3445.52  515.71 1755.62 1036.94    0.01    0.01    0.17    5.71    4.00  515.04
      3   1   AUA        .103E-03   55.00  165.80    0.38    0.00    0.00    0.00    0.20 3445.52  515.32 1757.54 1036.71    0.17    0.04    2.64    5.72    4.01  515.31
      4   1   AUA        .181E-01   55.00  165.80    7.91    0.00    0.00    0.00    0.20 3445.52  490.13 1921.59  989.30    5.66    1.97   28.48    8.42    5.89  490.13
      5   1   FAGASA     .101E+00   70.00   97.20   19.08    0.00    0.00    0.00    0.20 3445.52  893.67 1621.61  917.23   55.04    1.65   43.70    7.44    5.20  893.67
      6   1   AUA        .123E-02   66.00  165.80    4.10    0.00    0.00    0.00    0.20 3445.52  852.67 1522.56 1021.77    0.92    1.55   10.75   10.78    7.54  852.67
      7   2   AUA        .770E-02   55.00  165.80    5.08    0.00    0.00    0.00    0.20 3445.52  497.55 1895.82 1000.52    3.41    1.83   24.10    8.22    5.75  497.55
      8   2   FAGASA     .107E+00   70.00   97.20   17.43    0.00    0.00    0.00    0.20 3445.52  893.67 1621.21  917.24   50.60    1.65   43.55    7.44    5.21  893.67
      9   2   AUA        .103E-03   70.00  165.80    2.85    0.00    0.00    0.00    0.20 3445.52 1033.19 1307.40 1026.29    2.83    0.86   23.40    7.35    5.14 1033.19
     10   3   AUA        .492E-02   59.00  165.80    8.65    0.00  146.46    0.00    0.20 3445.52  524.74 1841.38 1045.11    0.24   15.41    3.46   38.39   24.96  524.74
     11   3   FAGASA     .123E-02   72.00   97.20    8.51    0.00  148.12    0.00    0.20 3445.52  796.43 1676.98  961.75    0.43   18.14    5.68   33.99   22.03  796.43
     12   3   AUA        .544E-02   72.00  165.80    3.46    0.00  137.91    0.00    0.20 3445.52 1041.84 1301.86 1056.41    0.20   12.90    2.91   38.91   25.31 1041.84
     13   3   URBAN LA   .123E-02   72.00    1.50    1.82    0.00  209.06   13.96    0.20 3445.52 2416.42    0.01 1008.79    0.00   24.47    0.00   25.33   16.40 2416.42
     14   3   FAGASA     .339E-02   72.00   97.20    5.51    0.00  150.84    0.00    0.20 3445.52  907.64 1514.72  987.55    0.35   17.37    4.84   35.62   23.12  907.64
     15   3   AUA        .257E-02   66.00  165.80    6.90    0.00    0.00    0.00    0.20 3445.52  840.30 1555.58 1008.79    1.56    1.65   15.57   11.20    7.84  840.30
     16   3   URBAN LA   .410E-03   83.00    1.50    2.31    0.00    0.00    0.00    0.20 3445.52 2381.38    0.00 1055.55    0.00    0.02    0.00    0.09    0.06 2381.38
     17   3   FAGASA     .308E-02   77.00   97.20    5.95    0.00    0.00    0.00    0.20 3445.52 1229.42 1231.90  956.03    4.87    1.47   32.57    8.62    6.03 1229.42
     18   3   AUA        .365E-01   55.00  165.80    4.59    0.00    0.00    0.00    0.20 3445.52  498.87 1890.44 1002.68    3.76    1.79   25.11    8.14    5.70  498.87
     19   3   FAGASA     .182E+00   70.00   97.20   12.01    0.00    0.00    0.00    0.20 3445.52  893.68 1619.87  917.19   37.07    1.65   42.94    7.44    5.21  893.68
     20   3   URBAN LA   .103E-03   77.00    1.50    2.75    0.00    0.00    0.00    0.20 3445.52 2326.08    0.01 1106.59    0.00    0.01    0.00    0.07    0.05 2326.08
     21   3   AUA        .451E-02   77.00  165.80    3.17    0.00    0.00    0.00    0.20 3445.52 1347.34 1048.97 1002.97    5.69    1.57   30.74    8.48    5.93 1347.34
     22   3   URBAN LA   .616E-03   77.00    1.50    2.36    0.00    0.00    0.00    0.20 3445.52 2326.08    0.01 1106.59    0.00    0.01    0.00    0.07    0.05 2326.08
     23   3   FAGASA     .246E-02   77.00   97.20    4.19    0.00    0.00    0.00    0.20 3445.52 1279.88 1179.25  949.97   11.60    1.63   38.84    7.06    4.94 1279.88



                AVE MONTHLY BASIN VALUES
                   SNOW                      WATER               SED
  MON     RAIN     FALL   SURF Q    LAT Q    YIELD       ET    YIELD      PET
          (MM)     (MM)     (MM)     (MM)     (MM)     (MM)   (T/HA)     (MM)
    1   482.70     0.00   136.73   242.54   384.73    92.28    14.89   144.60
    2   253.79     0.00    46.08   130.87   182.81    94.88     4.62   147.85
    3   198.40     0.00    21.32    86.42   112.28   103.94     0.01   138.83
    4   514.12     0.00   152.50   230.45   385.50    89.55     0.08   122.00
    5   208.30     0.00    37.54   113.75   155.28    69.32     0.03   133.41
    6   184.15     0.00    42.18    85.16   130.80    55.89     0.08   130.66
    7   302.85     0.00   119.15   108.98   230.31    62.64     0.45   127.70
    8   228.95     0.00    49.34   112.59   164.05    71.56     0.42   152.15
    9   118.50     0.00     8.73    53.20    63.73    60.84     0.18   138.41
   10   173.77     0.00    21.59    78.11   100.69    67.78     0.72   162.03
   11   347.37     0.00    89.43   165.36   255.55    77.85     4.83   144.69
   12   439.17     0.00   130.89   199.45   332.72    90.11    11.03   146.90

     AVE ANNUAL BASIN STRESS DAYS
               WATER STRESS DAYS =     1.90
               TEMPERATURE STRESS DAYS =     0.11
               NITROGEN STRESS DAYS =     8.96
               PHOSPHORUS STRESS DAYS =     0.09
               AERATION STRESS DAYS =     0.00
1
    SWAT Dec 23 2016    VER 2016/Rev 664                                            

    General Input/Output section (file.cio):                                        
    2/7/2020 21:48:54 QSWAT Workflow v1.5.2                                         
                                                                                    
         AVE ANNUAL BASIN VALUES

              PRECIP =   3445.5 MM
              SNOW FALL =    0.00 MM
              SNOW MELT =     0.00 MM
              SUBLIMATION =     0.00 MM
              SURFACE RUNOFF Q =   854.29 MM
              LATERAL SOIL Q = 1603.51 MM
              TILE Q =     0.00 MM
              GROUNDWATER (SHAL AQ) Q =    33.26 MM
              GROUNDWATER (DEEP AQ) Q =     2.65 MM
              REVAP (SHAL AQ => SOIL/PLANTS) =   33.70 MM
              DEEP AQ RECHARGE =     2.57 MM
              TOTAL AQ RECHARGE =   51.48 MM
              TOTAL WATER YLD =  2493.71 MM
              PERCOLATION OUT OF SOIL =   51.78 MM
              ET =    934.2 MM
              PET =   1685.4MM
              TRANSMISSION LOSSES =     0.00 MM
              SEPTIC INFLOW =       0.00 MM
              TOTAL SEDIMENT LOADING =     37.23 T/HA
              TILE FROM IMPOUNDED WATER =     0.000 (MM)
              EVAPORATION FROM IMPOUNDED WATER =     0.000 (MM)
              SEEPAGE INTO SOIL FROM IMPOUNDED WATER =    0.000 (MM)
              OVERFLOW FROM IMPOUNDED WATER =    0.000 (MM)
1
    SWAT Dec 23 2016    VER 2016/Rev 664                                            

    General Input/Output section (file.cio):                                        
    2/7/2020 21:48:54 QSWAT Workflow v1.5.2                                         
                                                                                    
              AVE ANNUAL BASIN VALUES


              NUTRIENTS
                   ORGANIC N =    39.055 (KG/HA)
                   ORGANIC P =     4.780 (KG/HA)
                   NO3 YIELD (SQ) =     0.170 (KG/HA)
                   NO3 YIELD (LAT) =    2.015 (KG/HA)
                   NO3 YIELD (TILE) =    0.000 (KG/HA)
                   SOLP YIELD (TILE) =    0.000(KG/HA)
                   SOLP YIELD (SURF INLET RISER) =    0.000 (KG/HA)
                   SOL P YIELD =    0.040 (KG/HA)
                   NO3 LEACHED =     0.771 (KG/HA)
                   P LEACHED =     0.023 (KG/HA)
                   N UPTAKE =    12.774 (KG/HA)
                   P UPTAKE =    3.162 (KG/HA)
                   NO3 YIELD (GWQ) =     0.005 (KG/HA)
                   ACTIVE TO SOLUTION P FLOW =        -0.701 (KG/HA)
                   ACTIVE TO STABLE P FLOW =        -0.234 (KG/HA)
                   N FERTILIZER APPLIED =     5.427 (KG/HA)
                   P FERTILIZER APPLIED =     0.000 (KG/HA)
                   N FIXATION =     0.000 (KG/HA)
                   DENITRIFICATION =     0.246 (KG/HA)
                   HUMUS MIN ON ACTIVE ORG N =    12.762 (KG/HA)
                   ACTIVE TO STABLE ORG N =   -10.788 (KG/HA)
                   HUMUS MIN ON ACTIVE ORG P =    2.179 (KG/HA)
                   MIN FROM FRESH ORG N =    2.487 (KG/HA)
                   MIN FROM FRESH ORG P =    0.573 (KG/HA)
                   NO3 IN RAINFALL =     0.000 (KG/HA)
                   INITIAL NO3 IN SOIL =      36.996 (KG/HA)
                   FINAL NO3 IN SOIL =         5.985 (KG/HA)
                   INITIAL ORG N IN SOIL =   12173.741 (KG/HA)
                   FINAL ORG N IN SOIL =     11271.771 (KG/HA)
                   INITIAL MIN P IN SOIL =    1901.517 (KG/HA)
                   FINAL MIN P IN SOIL =      1822.566 (KG/HA)
                   INITIAL ORG P IN SOIL =    1491.283 (KG/HA)
                   FINAL ORG P IN SOIL =    1373.657 (KG/HA)
                   NO3 IN FERT =     5.427 (KG/HA)
                   AMMONIA IN FERT =     0.000 (KG/HA)
                   ORG N IN FERT =     0.000 (KG/HA)
                   MINERAL P IN FERT =     0.018 (KG/HA)
                   ORG P IN FERT =     0.000 (KG/HA)
                   N REMOVED IN YIELD =     9.836 (KG/HA)
                   P REMOVED IN YIELD =     2.478 (KG/HA)
                   AMMONIA VOLATILIZATION =     0.000 (KG/HA)
                   AMMONIA NITRIFICATION =      0.000 (KG/HA)
                   NO3 EVAP-LAYER 2 TO 1 =    3.688

                   DIE-GRO P Q =           0.0 (No/M2)
                   DIE-GRO LP Q =           0.0 (No/M2)
                   DIE-GRO P SED =          0.0 (No/M2)
                   DIE-GRO LP SED =          0.0 (No/M2)
                   BACT P RUNOFF =          0.0 (No/M2)
                   BACT LP RUNOFF =          0.0 (No/M2)
                   BACT P SEDIMENT =          0.0 (No/M2)
                   BACT LP SEDIMENT =          0.0 (No/M2)
                   BACT P INCORP =          0.0 (No/M2)
                   BACT LP INCORP =          0.0 (No/M2)

                   NITRATE SEPTIC =         0.00 (kg/ha)
                   AMMONIA SEPTIC =         0.00 (kg/ha)
                   ORG N SEPTIC =         0.00 (kg/ha)
                   FRESH ORGN SEPTIC =         0.00 (kg/ha)
                   ORG P SEPTIC =         0.00 (kg/ha)
                   FRESH ORGP SEPTIC =         0.00 (kg/ha)
                   SOL P SEPTIC =         0.00 (kg/ha)
                   BOD SEPTIC =         0.00 (kg/ha)
