1
    SWAT Dec 23 2016    VER 2016/Rev 664                                                                 0/ 0/   0      0: 0: 0

    General Input/Output section (file.cio):                                        
    2/11/2020 17:04:58 QSWAT Workflow v1.5.2                                        
                                                                                    


LULC  HRU       GIS  SUB  MGT  MON   AREAkm2  PRECIPmm SNOFALLmm SNOMELTmm     IRRmm     PETmm      ETmm SW_INITmm  SW_ENDmm    PERCmm GW_RCHGmm DA_RCHGmm   REVAPmm  SA_IRRmm  DA_IRRmm   SA_STmm   DA_STmmSURQ_GENmmSURQ_CNTmm   TLOSSmm LATQGENmm    GW_Qmm    WYLDmm   DAILYCN TMP_AVdgC TMP_MXdgC TMP_MNdgCSOL_TMPdgCSOLARMJ/m2  SYLDt/ha  USLEt/haN_APPkg/haP_APPkg/haNAUTOkg/haPAUTOkg/ha NGRZkg/ha PGRZkg/haNCFRTkg/haPCFRTkg/haNRAINkg/ha NFIXkg/ha F-MNkg/ha A-MNkg/ha A-SNkg/ha F-MPkg/haAO-LPkg/ha L-APkg/ha A-SPkg/ha DNITkg/ha  NUPkg/ha  PUPkg/ha ORGNkg/ha ORGPkg/ha SEDPkg/haNSURQkg/haNLATQkg/ha NO3Lkg/haNO3GWkg/ha SOLPkg/ha P_GWkg/ha    W_STRS  TMP_STRS    N_STRS    P_STRS  BIOMt/ha       LAI   YLDt/ha  BACTPct   BACTLPct WTAB CLIm WTAB SOLm     SNOmm CMUPkg/haCMTOTkg/ha   QTILEmm TNO3kg/ha LNO3kg/ha  GW_Q_Dmm LATQCNTmm TVAPkg/ha
FRSE    1 000010001    1    0    1.37963E-02   576.600     0.000     0.000     0.000   117.370    90.438   161.052   164.688    95.406    58.694     2.935     2.347     0.000     0.000  1021.128  2006.649    68.464    68.464     0.000   304.399    46.514   421.251    73.723    26.316    28.503    24.129    24.877    15.425     0.953     2.559     0.000     0.000     0.000     0.000     0.000     0.000     0.000     0.000     0.000     0.000     0.030     1.681    -1.308     0.004     0.287     0.143     0.178     0.000     0.000     0.000     8.657     1.057     0.780     0.002     0.389     2.011     0.014     0.011     0.000     0.000     0.000     0.000     0.000     0.000     0.000     0.000 .00000E+00 .00000E+00 0.870E-05 0.444E+04 0.000E+00 0.000E+00 0.000E+00 0.000E+00 0.000E+00 0.389E+00     1.874   304.399     0.000
FRSE    2 000010002    1    0    1.64743E-01   576.600     0.000     0.000     0.000   117.370    87.358    91.226    96.088     7.239     3.407     0.170     2.347     0.000     0.000   895.168  2000.278   161.728   161.728     0.000   300.375     0.000   462.170    84.602    26.316    28.503    24.129    25.505    15.425    13.253     9.789     0.000     0.000     0.000     0.000     0.000     0.000     0.000     0.000     0.000     0.000     0.010     1.095    -0.816     0.002     0.187     0.181     0.297     0.000     0.000     0.000    26.907     3.287     2.640     0.005     0.416     0.141     0.000     0.009     0.000     0.000     0.000     0.000     0.000     0.000     0.000     0.000 .00000E+00 .00000E+00 0.237E-04 0.404E+04 0.000E+00 0.000E+00 0.000E+00 0.000E+00 0.000E+00 0.416E+00     0.067   300.375     0.000
FRSD    3 000010003    1    0    1.51301E-03   576.600     0.000     0.000     0.000   117.370    84.335   161.637   164.778   155.181    98.105     4.905     2.347     0.000     0.000  1044.326  2010.498   138.541   138.541     0.000   183.313    77.218   401.996    82.532    26.316    28.503    24.129    24.472    15.425     0.006     0.013     0.000     0.000     0.000     0.000     0.000     0.000     0.000     0.000     0.000     0.000     0.488     1.693    -1.284     0.344     0.289     0.457     0.453     0.000     0.000     0.000     0.077     0.010     0.007     0.018     0.271     1.769     0.015     0.047     0.000     0.000     0.000     0.000     0.000     0.000     0.000     0.000 .00000E+00 .00000E+00 0.192E-04 0.444E+04 0.000E+00 0.000E+00 0.000E+00 0.000E+00 0.000E+00 0.271E+00     2.923   183.313     0.000
FRSD    4 000010004    1    0    1.17442E-02   576.600     0.000     0.000     0.000   117.370    83.510    92.421    96.157    15.153     7.878     0.394     2.347     0.000     0.000   984.641  2000.627   229.027   229.027     0.000   234.057     0.000   463.234    89.319    26.316    28.503    24.129    25.322    15.425     0.061     0.042     0.000     0.000     0.000     0.000     0.000     0.000     0.000     0.000     0.000     0.000     0.346     1.134    -0.807     0.297     0.194     0.464     0.491     0.000     0.000     0.000     0.521     0.067     0.052     0.036     0.390     0.131     0.000     0.053     0.000     0.000     0.000     0.000     0.000     0.000     0.000     0.000 .00000E+00 .00000E+00 0.479E-04 0.404E+04 0.000E+00 0.000E+00 0.000E+00 0.000E+00 0.000E+00 0.390E+00     0.150   234.057     0.000
FRSD    5 000010005    1    0    1.10260E-03   576.600     0.000     0.000     0.000   117.370    83.602   161.503   164.784    50.253    29.252     1.463     2.347     0.000     0.000  1010.342  2002.635   234.049   234.049     0.000   196.443    20.538   451.711    89.627    26.316    28.503    24.129    24.453    15.425     0.000     0.027     0.000     0.000     0.000     0.000     0.000     0.000     0.000     0.000     0.000     0.000     0.532     1.704    -1.249     0.378     0.291     0.586     0.559     0.000     0.000     0.000     0.000     0.000     0.000     0.049     0.371     0.659     0.001     0.088     0.000     0.000     0.000     0.000     0.000     0.000     0.000     0.000 .00000E+00 .00000E+00 0.807E-04 0.444E+04 0.000E+00 0.000E+00 0.000E+00 0.000E+00 0.000E+00 0.371E+00     0.681   196.443     0.000
FRSD    6 000010006    1    0    1.14364E-02   576.600     0.000     0.000     0.000   117.370    83.851    92.645    96.157    22.407    12.377     0.619     2.347     0.000     0.000  1004.295  2001.087   229.428   229.428     0.000   226.856     4.609   461.168    89.346    26.316    28.503    24.129    25.324    15.425     0.046     0.040     0.000     0.000     0.000     0.000     0.000     0.000     0.000     0.000     0.000     0.000     0.343     1.136    -0.818     0.291     0.194     0.441     0.457     0.000     0.000     0.000     0.425     0.054     0.042     0.034     0.386     0.242     0.000     0.055     0.000     0.000     0.000     0.000     0.000     0.000     0.000     0.000 .00000E+00 .00000E+00 0.536E-04 0.404E+04 0.000E+00 0.000E+00 0.000E+00 0.000E+00 0.000E+00 0.386E+00     0.275   226.856     0.000
FRSD    7 000010007    1    0    1.51301E-03   576.600     0.000     0.000     0.000   117.370    83.710   161.528   164.784    59.711    35.391     1.770     2.347     0.000     0.000  1013.749  2003.286   234.082   234.082     0.000   187.461    25.507   447.915    89.629    26.316    28.503    24.129    24.454    15.425     0.010     0.022     0.000     0.000     0.000     0.000     0.000     0.000     0.000     0.000     0.000     0.000     0.528     1.702    -1.254     0.376     0.291     0.573     0.549     0.000     0.000     0.000     0.112     0.014     0.010     0.047     0.354     0.783     0.002     0.086     0.000     0.000     0.000     0.000     0.000     0.000     0.000     0.000 .00000E+00 .00000E+00 0.853E-04 0.444E+04 0.000E+00 0.000E+00 0.000E+00 0.000E+00 0.000E+00 0.354E+00     0.864   187.461     0.000
FRSD    8 000010008    1    0    1.18469E-02   576.600     0.000     0.000     0.000   117.370    83.847    92.642    96.157    22.253    12.281     0.614     2.347     0.000     0.000  1004.390  2001.077   229.424   229.424     0.000   227.003     4.255   460.955    89.346    26.316    28.503    24.129    25.324    15.425     0.048     0.063     0.000     0.000     0.000     0.000     0.000     0.000     0.000     0.000     0.000     0.000     0.343     1.135    -0.817     0.291     0.194     0.442     0.460     0.000     0.000     0.000     0.439     0.056     0.043     0.034     0.386     0.240     0.000     0.054     0.000     0.000     0.000     0.000     0.000     0.000     0.000     0.000 .00000E+00 .00000E+00 0.535E-04 0.404E+04 0.000E+00 0.000E+00 0.000E+00 0.000E+00 0.000E+00 0.386E+00     0.272   227.003     0.000
FRSE    9 000020001    2    0    1.41041E-02   576.600     0.000     0.000     0.000   117.363    90.353   161.022   164.688    86.429    52.914     2.646     2.347     0.000     0.000  1018.666  2005.957    68.452    68.452     0.000   312.997    41.775   424.901    73.719    26.316    28.503    24.129    24.876    15.425     1.085     2.887     0.000     0.000     0.000     0.000     0.000     0.000     0.000     0.000     0.000     0.000     0.033     1.680    -1.304     0.004     0.287     0.155     0.192     0.000     0.000     0.000     9.335     1.139     0.847     0.002     0.404     1.924     0.012     0.011     0.000     0.000     0.000     0.000     0.000     0.000     0.000     0.000 .00000E+00 .00000E+00 0.872E-05 0.444E+04 0.000E+00 0.000E+00 0.000E+00 0.000E+00 0.000E+00 0.404E+00     1.677   312.997     0.000
FRSE   10 000020002    2    0    1.65973E-01   576.600     0.000     0.000     0.000   117.363    87.357    91.226    96.087     6.602     3.107     0.155     2.347     0.000     0.000   884.791  2000.248   161.730   161.730     0.000   300.980     0.000   462.771    84.603    26.316    28.503    24.129    25.505    15.425    17.830    13.137     0.000     0.000     0.000     0.000     0.000     0.000     0.000     0.000     0.000     0.000     0.008     1.093    -0.815     0.002     0.187     0.183     0.297     0.000     0.000     0.000    29.118     3.556     2.866     0.005     0.419     0.127     0.000     0.008     0.000     0.000     0.000     0.000     0.000     0.000     0.000     0.000 .00000E+00 .00000E+00 0.238E-04 0.404E+04 0.000E+00 0.000E+00 0.000E+00 0.000E+00 0.000E+00 0.419E+00     0.061   300.980     0.000
FRSD   11 000020003    2    0    1.51301E-03   576.600     0.000     0.000     0.000   117.363    83.813   161.501   164.781    73.217    44.486     2.224     2.347     0.000     0.000  1018.808  2004.434   138.368   138.368     0.000   266.653    33.524   439.743    82.517    26.316    28.503    24.129    24.461    15.425     0.006     0.017     0.000     0.000     0.000     0.000     0.000     0.000     0.000     0.000     0.000     0.000     0.510     1.701    -1.265     0.363     0.291     0.561     0.535     0.000     0.000     0.000     0.078     0.010     0.007     0.021     0.400     0.908     0.003     0.052     0.000     0.000     0.000     0.000     0.000     0.000     0.000     0.000 .00000E+00 .00000E+00 0.161E-04 0.444E+04 0.000E+00 0.000E+00 0.000E+00 0.000E+00 0.000E+00 0.400E+00     1.198   266.653     0.000
FRSD   12 000020004    2    0    1.30781E-03   576.600     0.000     0.000     0.000   117.363    84.017    92.718    96.156    27.556    15.610     0.781     2.347     0.000     0.000  1004.453  2001.423   229.522   229.522     0.000   221.879    10.031   461.800    89.355    26.316    28.503    24.129    25.325    15.425     0.027     0.056     0.000     0.000     0.000     0.000     0.000     0.000     0.000     0.000     0.000     0.000     0.343     1.141    -0.826     0.288     0.195     0.424     0.426     0.000     0.000     0.000     0.252     0.032     0.024     0.033     0.384     0.327     0.000     0.058     0.000     0.000     0.000     0.000     0.000     0.000     0.000     0.000 .00000E+00 .00000E+00 0.564E-04 0.404E+04 0.000E+00 0.000E+00 0.000E+00 0.000E+00 0.000E+00 0.384E+00     0.368   221.879     0.000
FRSD   13 000020005    2    0    1.30781E-03   576.600     0.000     0.000     0.000   117.363    83.589   161.498   164.783    49.311    28.642     1.432     2.347     0.000     0.000  1010.171  2002.571   234.044   234.044     0.000   197.341    20.026   452.074    89.627    26.316    28.503    24.129    24.453    15.425     0.009     0.028     0.000     0.000     0.000     0.000     0.000     0.000     0.000     0.000     0.000     0.000     0.531     1.701    -1.247     0.378     0.291     0.589     0.563     0.000     0.000     0.000     0.102     0.013     0.010     0.049     0.372     0.646     0.001     0.085     0.000     0.000     0.000     0.000     0.000     0.000     0.000     0.000 .00000E+00 .00000E+00 0.804E-04 0.444E+04 0.000E+00 0.000E+00 0.000E+00 0.000E+00 0.000E+00 0.372E+00     0.663   197.341     0.000
FRSD   14 000020006    2    0    1.20520E-03   576.600     0.000     0.000     0.000   117.363    84.178    92.802    96.156    34.414    19.968     0.998     2.347     0.000     0.000  1005.146  2001.884   229.625   229.625     0.000   215.231    14.061   459.411    89.366    26.316    28.503    24.129    25.326    15.425     0.014     0.057     0.000     0.000     0.000     0.000     0.000     0.000     0.000     0.000     0.000     0.000     0.340     1.143    -0.833     0.283     0.195     0.405     0.402     0.000     0.000     0.000     0.154     0.019     0.015     0.031     0.377     0.442     0.001     0.059     0.000     0.000     0.000     0.000     0.000     0.000     0.000     0.000 .00000E+00 .00000E+00 0.598E-04 0.404E+04 0.000E+00 0.000E+00 0.000E+00 0.000E+00 0.000E+00 0.377E+00     0.495   215.231     0.000
FRSD   15 000020007    2    0    1.20520E-03   576.600     0.000     0.000     0.000   117.363    83.630   161.509   164.783    51.951    30.353     1.518     2.347     0.000     0.000  1010.860  2002.747   234.055   234.055     0.000   194.824    21.441   451.035    89.628    26.316    28.503    24.129    24.453    15.425     0.000     0.026     0.000     0.000     0.000     0.000     0.000     0.000     0.000     0.000     0.000     0.000     0.531     1.703    -1.249     0.377     0.291     0.584     0.558     0.000     0.000     0.000     0.000     0.000     0.000     0.049     0.368     0.681     0.001     0.086     0.000     0.000     0.000     0.000     0.000     0.000     0.000     0.000 .00000E+00 .00000E+00 0.817E-04 0.444E+04 0.000E+00 0.000E+00 0.000E+00 0.000E+00 0.000E+00 0.368E+00     0.714   194.824     0.000
FRSD   16 000020008    2    0    1.61561E-03   576.600     0.000     0.000     0.000   117.363    84.126    92.760    96.156    30.991    17.790     0.890     2.347     0.000     0.000  1004.484  2001.649   229.573   229.573     0.000   218.524    12.194   460.723    89.361    26.316    28.503    24.129    25.326    15.425     0.029     0.049     0.000     0.000     0.000     0.000     0.000     0.000     0.000     0.000     0.000     0.000     0.341     1.139    -0.828     0.285     0.195     0.415     0.420     0.000     0.000     0.000     0.302     0.038     0.029     0.032     0.380     0.384     0.000     0.057     0.000     0.000     0.000     0.000     0.000     0.000     0.000     0.000 .00000E+00 .00000E+00 0.582E-04 0.404E+04 0.000E+00 0.000E+00 0.000E+00 0.000E+00 0.000E+00 0.380E+00     0.431   218.524     0.000
SWCH   17 000030001    3    0    1.14364E-02   576.600     0.000     0.000     0.000   117.376    82.869   161.372   164.789    44.292    26.540     1.327     2.348     0.000     0.000  1009.729  2002.368    91.146    91.146     0.000   340.160    19.086   451.005    77.146    26.316    28.503    24.129    24.438    15.425     0.035     0.126     0.000     0.000     0.000     0.000     0.000     0.000     0.000     0.000     0.000     0.000     4.331     1.882    -0.926     1.147     0.323     1.243     1.063     0.000     0.000     0.000     0.547     0.070     0.040     0.071     1.497     0.892     0.002     0.046     0.000     0.000     0.000     0.000     0.000     0.000     0.000     0.000 .00000E+00 .00000E+00 0.812E-05 0.444E+04 0.000E+00 0.000E+00 0.000E+00 0.000E+00 0.000E+00 0.150E+01     0.613   340.160     0.000
FRSE   18 000030002    3    0    1.20521E-03   576.600     0.000     0.000     0.000   117.376    91.412   161.672   165.227   412.676   266.085    13.304     2.348     0.000     0.000  1123.483  2031.484    69.071    62.299     0.000     0.014   218.163   289.518    73.820    26.316    28.503    24.129    24.887    15.425     0.000     0.087     0.000     0.000     0.000     0.000     0.000     0.000     0.000     0.000     0.000     0.000     0.016     1.706    -1.346     0.004     0.291    -0.172    -0.082     0.000     0.000     0.000     0.000     0.000     0.000     0.001     0.000     2.992     0.105     0.018     0.000     0.000     0.000     0.000     0.000     0.000     0.000     0.000 .00000E+00 .00000E+00 0.106E-04 0.444E+04 0.000E+00 0.000E+00 0.000E+00 0.000E+00 0.000E+00 0.160E-04     9.042     0.014     0.000
FRSE   19 000030003    3    0    1.10260E-03   576.600     0.000     0.000     0.000   117.376    91.400   161.615   165.109   406.541   261.990    13.100     2.348     0.000     0.000  1121.088  2030.990    68.997    68.836     0.000     4.939   214.748   297.422    73.811    26.316    28.503    24.129    24.887    15.425     0.064     0.272     0.000     0.000     0.000     0.000     0.000     0.000     0.000     0.000     0.000     0.000     0.016     1.703    -1.343     0.004     0.291    -0.164    -0.077     0.000     0.000     0.000     0.947     0.116     0.077     0.001     0.004     2.978     0.103     0.019     0.000     0.000     0.000     0.000     0.000     0.000     0.000     0.000 .00000E+00 .00000E+00 0.895E-05 0.444E+04 0.000E+00 0.000E+00 0.000E+00 0.000E+00 0.000E+00 0.446E-02     8.899     4.939     0.000
FRSE   20 000030004    3    0    1.18058E-01   576.600     0.000     0.000     0.000   117.376    89.863   160.752   164.689    44.746    26.303     1.315     2.348     0.000     0.000  1007.754  2002.833    68.367    68.367     0.000   352.500    20.024   441.672    73.676    26.316    28.503    24.129    24.875    15.425     2.468     9.437     0.000     0.000     0.000     0.000     0.000     0.000     0.000     0.000     0.000     0.000     0.036     1.670    -1.283     0.004     0.285     0.217     0.279     0.000     0.000     0.000    12.623     1.538     1.185     0.002     0.472     1.389     0.004     0.007     0.000     0.000     0.000     0.000     0.000     0.000     0.000     0.000 .00000E+00 .00000E+00 0.853E-05 0.444E+04 0.000E+00 0.000E+00 0.000E+00 0.000E+00 0.000E+00 0.472E+00     0.781   352.500     0.000
FRSE   21 000030005    3    0    1.10096E+00   576.600     0.000     0.000     0.000   117.376    87.360    91.225    96.088     5.921     2.786     0.139     2.348     0.000     0.000   871.525  2000.231   161.727   161.727     0.000   301.621     0.000   463.403    84.602    26.316    28.503    24.129    25.505    15.425    25.882    18.111     0.000     0.000     0.000     0.000     0.000     0.000     0.000     0.000     0.000     0.000     0.006     1.090    -0.814     0.001     0.186     0.185     0.294     0.000     0.000     0.000    32.149     3.925     3.174     0.004     0.421     0.114     0.000     0.007     0.000     0.000     0.000     0.000     0.000     0.000     0.000     0.000 .00000E+00 .00000E+00 0.237E-04 0.404E+04 0.000E+00 0.000E+00 0.000E+00 0.000E+00 0.000E+00 0.421E+00     0.055   301.621     0.000
FRSD   22 000030006    3    0    1.12312E-02   576.600     0.000     0.000     0.000   117.376    83.824   161.501   164.782    73.873    44.914     2.246     2.348     0.000     0.000  1019.101  2004.479   138.369   138.369     0.000   266.020    33.869   439.469    82.517    26.316    28.503    24.129    24.462    15.425     0.010     0.019     0.000     0.000     0.000     0.000     0.000     0.000     0.000     0.000     0.000     0.000     0.509     1.700    -1.264     0.363     0.291     0.561     0.535     0.000     0.000     0.000     0.120     0.015     0.011     0.021     0.399     0.916     0.003     0.051     0.000     0.000     0.000     0.000     0.000     0.000     0.000     0.000 .00000E+00 .00000E+00 0.160E-04 0.444E+04 0.000E+00 0.000E+00 0.000E+00 0.000E+00 0.000E+00 0.399E+00     1.212   266.020     0.000
FRSE   23 000040001    4    0    1.76952E-02   576.600     0.000     0.000     0.000   117.394    90.217   160.970   164.690    72.160    43.753     2.188     2.348     0.000     0.000  1014.472  2004.879    68.429    68.429     0.000   326.613    34.287   430.696    73.711    26.316    28.503    24.129    24.876    15.425     1.432     2.799     0.000     0.000     0.000     0.000     0.000     0.000     0.000     0.000     0.000     0.000     0.038     1.676    -1.297     0.004     0.286     0.176     0.222     0.000     0.000     0.000    10.583     1.291     0.973     0.002     0.427     1.759     0.009     0.009     0.000     0.000     0.000     0.000     0.000     0.000     0.000     0.000 .00000E+00 .00000E+00 0.853E-05 0.444E+04 0.000E+00 0.000E+00 0.000E+00 0.000E+00 0.000E+00 0.427E+00     1.367   326.613     0.000
FRSE   24 000040002    4    0    1.10722E+00   576.600     0.000     0.000     0.000   117.394    87.364    91.224    96.090     6.131     2.886     0.144     2.348     0.000     0.000   875.731  2000.240   161.722   161.722     0.000   301.418     0.000   463.197    84.602    26.316    28.503    24.129    25.505    15.425    23.800    16.540     0.000     0.000     0.000     0.000     0.000     0.000     0.000     0.000     0.000     0.000     0.006     1.090    -0.814     0.001     0.186     0.184     0.295     0.000     0.000     0.000    31.439     3.839     3.102     0.005     0.420     0.118     0.000     0.007     0.000     0.000     0.000     0.000     0.000     0.000     0.000     0.000 .00000E+00 .00000E+00 0.235E-04 0.404E+04 0.000E+00 0.000E+00 0.000E+00 0.000E+00 0.000E+00 0.420E+00     0.057   301.418     0.000
FRSE   25 000040003    4    0    1.10261E-03   576.600     0.000     0.000     0.000   117.394    91.006   161.261   164.690   180.711   114.517     5.726     2.348     0.000     0.000  1042.173  2013.184   169.669   169.669     0.000   120.845    91.660   385.921    85.258    26.316    28.503    24.129    24.879    15.425     1.231     2.323     0.000     0.000     0.000     0.000     0.000     0.000     0.000     0.000     0.000     0.000     0.022     1.675    -1.316     0.004     0.286     0.064     0.123     0.000     0.000     0.000    11.370     1.389     1.020     0.004     0.169     2.822     0.041     0.026     0.000     0.000     0.000     0.000     0.000     0.000     0.000     0.000 .00000E+00 .00000E+00 0.378E-04 0.444E+04 0.000E+00 0.000E+00 0.000E+00 0.000E+00 0.000E+00 0.169E+00     3.747   120.845     0.000
SWCH   26 000050001    5    0    1.46170E-02   576.600     0.000     0.000     0.000   117.313    82.752   161.289   164.784    36.887    21.392     1.070     2.346     0.000     0.000  1008.053  2001.802    91.119    91.119     0.000   347.115    13.709   452.396    77.134    26.316    28.503    24.129    24.438    15.425     0.049     0.115     0.000     0.000     0.000     0.000     0.000     0.000     0.000     0.000     0.000     0.000     4.314     1.882    -0.918     1.145     0.323     1.248     1.065     0.000     0.000     0.000     0.735     0.095     0.054     0.073     1.520     0.733     0.001     0.046     0.000     0.000     0.000     0.000     0.000     0.000     0.000     0.000 .00000E+00 .00000E+00 0.833E-05 0.444E+04 0.000E+00 0.000E+00 0.000E+00 0.000E+00 0.000E+00 0.152E+01     0.453   347.115     0.000
SWCH   27 000050002    5    0    1.10260E-02   576.600     0.000     0.000     0.000   117.313    80.618    90.629    96.184     6.779     2.166     0.108     2.346     0.000     0.000   847.568  2000.125   177.133   177.133     0.000   290.108     0.000   467.262    85.864    26.316    28.503    24.129    25.242    15.425     0.109     0.146     0.000     0.000     0.000     0.000     0.000     0.000     0.000     0.000     0.000     0.000     4.255     1.342    -0.461     1.186     0.230     1.209     0.986     0.000     0.000     0.000     1.579     0.203     0.113     0.180     1.562     0.050     0.000     0.073     0.000     0.000     0.000     0.000     0.000     0.000     0.000     0.000 .00000E+00 .00000E+00 0.822E-05 0.404E+04 0.000E+00 0.000E+00 0.000E+00 0.000E+00 0.000E+00 0.156E+01     0.021   290.108     0.000
FRSE   28 000050003    5    0    1.93367E-02   576.600     0.000     0.000     0.000   117.313    90.304   161.012   164.684    82.683    50.501     2.525     2.346     0.000     0.000  1017.587  2005.673    68.450    68.450     0.000   316.607    39.795   426.447    73.717    26.316    28.503    24.129    24.876    15.425     1.261     4.244     0.000     0.000     0.000     0.000     0.000     0.000     0.000     0.000     0.000     0.000     0.034     1.678    -1.301     0.004     0.287     0.162     0.205     0.000     0.000     0.000    10.079     1.230     0.921     0.002     0.410     1.883     0.011     0.010     0.000     0.000     0.000     0.000     0.000     0.000     0.000     0.000 .00000E+00 .00000E+00 0.896E-05 0.444E+04 0.000E+00 0.000E+00 0.000E+00 0.000E+00 0.000E+00 0.410E+00     1.594   316.607     0.000
FRSE   29 000050004    5    0    1.20520E-02   576.600     0.000     0.000     0.000   117.313    87.346    91.231    96.083     6.647     3.127     0.156     2.346     0.000     0.000   885.394  2000.253   161.741   161.741     0.000   300.951     0.000   462.754    84.603    26.316    28.503    24.129    25.505    15.425    11.498    12.832     0.000     0.000     0.000     0.000     0.000     0.000     0.000     0.000     0.000     0.000     0.011     1.097    -0.817     0.002     0.187     0.181     0.297     0.000     0.000     0.000    25.894     3.163     2.536     0.005     0.421     0.128     0.000     0.009     0.000     0.000     0.000     0.000     0.000     0.000     0.000     0.000 .00000E+00 .00000E+00 0.242E-04 0.404E+04 0.000E+00 0.000E+00 0.000E+00 0.000E+00 0.000E+00 0.421E+00     0.062   300.951     0.000
FRSD   30 000050005    5    0    1.15390E-02   576.600     0.000     0.000     0.000   117.313    83.108   161.214   164.779    30.114    16.718     0.836     2.346     0.000     0.000  1005.413  2001.414   138.187   138.187     0.000   307.729     9.787   456.055    82.486    26.316    28.503    24.129    24.455    15.425     0.025     0.038     0.000     0.000     0.000     0.000     0.000     0.000     0.000     0.000     0.000     0.000     0.523     1.696    -1.231     0.375     0.290     0.633     0.609     0.000     0.000     0.000     0.249     0.032     0.024     0.026     0.450     0.381     0.000     0.047     0.000     0.000     0.000     0.000     0.000     0.000     0.000     0.000 .00000E+00 .00000E+00 0.146E-04 0.444E+04 0.000E+00 0.000E+00 0.000E+00 0.000E+00 0.000E+00 0.450E+00     0.352   307.729     0.000
FRSD   31 000050006    5    0    1.41040E-03   576.600     0.000     0.000     0.000   117.313    83.020    91.903    96.153     8.325     3.459     0.173     2.346     0.000     0.000   879.475  2000.226   227.797   227.797     0.000   241.559     0.000   469.401    89.253    26.316    28.503    24.129    25.319    15.425     0.068     0.139     0.000     0.000     0.000     0.000     0.000     0.000     0.000     0.000     0.000     0.000     0.347     1.137    -0.793     0.299     0.194     0.484     0.513     0.000     0.000     0.000     0.559     0.072     0.056     0.039     0.386     0.043     0.000     0.053     0.000     0.000     0.000     0.000     0.000     0.000     0.000     0.000 .00000E+00 .00000E+00 0.371E-04 0.404E+04 0.000E+00 0.000E+00 0.000E+00 0.000E+00 0.000E+00 0.386E+00     0.046   241.559     0.000
FRSD   32 000050007    5    0    1.11286E-02   576.600     0.000     0.000     0.000   117.313    83.735   161.542   164.779    64.260    38.348     1.917     2.346     0.000     0.000  1015.404  2003.611   234.102   234.102     0.000   183.195    27.887   446.137    89.630    26.316    28.503    24.129    24.455    15.425     0.011     0.008     0.000     0.000     0.000     0.000     0.000     0.000     0.000     0.000     0.000     0.000     0.527     1.701    -1.256     0.375     0.291     0.568     0.545     0.000     0.000     0.000     0.146     0.019     0.013     0.046     0.346     0.842     0.002     0.086     0.000     0.000     0.000     0.000     0.000     0.000     0.000     0.000 .00000E+00 .00000E+00 0.891E-04 0.444E+04 0.000E+00 0.000E+00 0.000E+00 0.000E+00 0.000E+00 0.346E+00     0.953   183.195     0.000
FRSD   33 000050008    5    0    1.71821E-03   576.600     0.000     0.000     0.000   117.313    84.108   161.655   164.778   116.455    72.590     3.629     2.346     0.000     0.000  1032.355  2007.373   234.267   234.267     0.000   130.195    55.580   422.055    89.637    26.316    28.503    24.129    24.461    15.425     0.013     0.023     0.000     0.000     0.000     0.000     0.000     0.000     0.000     0.000     0.000     0.000     0.512     1.692    -1.271     0.365     0.289     0.507     0.498     0.000     0.000     0.000     0.135     0.017     0.012     0.040     0.244     1.492     0.009     0.080     0.000     0.000     0.000     0.000     0.000     0.000     0.000     0.000 .00000E+00 .00000E+00 0.111E-03 0.444E+04 0.000E+00 0.000E+00 0.000E+00 0.000E+00 0.000E+00 0.244E+00     2.014   130.195     0.000
FRSE   34 000060001    6    0    1.23598E-02   576.600     0.000     0.000     0.000   117.297    90.297   161.012   164.683    82.321    50.267     2.513     2.346     0.000     0.000  1017.482  2005.645    68.451    68.451     0.000   316.962    39.602   426.601    73.717    26.316    28.503    24.129    24.876    15.425     1.075     3.018     0.000     0.000     0.000     0.000     0.000     0.000     0.000     0.000     0.000     0.000     0.035     1.681    -1.303     0.004     0.287     0.160     0.195     0.000     0.000     0.000     9.298     1.134     0.843     0.002     0.412     1.881     0.011     0.011     0.000     0.000     0.000     0.000     0.000     0.000     0.000     0.000 .00000E+00 .00000E+00 0.904E-05 0.444E+04 0.000E+00 0.000E+00 0.000E+00 0.000E+00 0.000E+00 0.412E+00     1.586   316.962     0.000
FRSD   35 000060002    6    0    1.10260E-03   576.600     0.000     0.000     0.000   117.297    83.945    92.703    96.151    26.093    14.686     0.734     2.346     0.000     0.000  1004.258  2001.323   229.507   229.507     0.000   223.344     8.915   462.106    89.354    26.316    28.503    24.129    25.324    15.425     0.000     0.048     0.000     0.000     0.000     0.000     0.000     0.000     0.000     0.000     0.000     0.000     0.344     1.144    -0.826     0.290     0.195     0.427     0.423     0.000     0.000     0.000     0.000     0.000     0.000     0.033     0.387     0.303     0.000     0.060     0.000     0.000     0.000     0.000     0.000     0.000     0.000     0.000 .00000E+00 .00000E+00 0.566E-04 0.404E+04 0.000E+00 0.000E+00 0.000E+00 0.000E+00 0.000E+00 0.387E+00     0.341   223.344     0.000
FRSD   36 000060003    6    0    1.71820E-03   576.600     0.000     0.000     0.000   117.297    83.739   161.546   164.778    65.539    39.180     1.959     2.346     0.000     0.000  1015.614  2003.697   234.107   234.107     0.000   181.997    28.574   445.656    89.630    26.316    28.503    24.129    24.455    15.425     0.009     0.008     0.000     0.000     0.000     0.000     0.000     0.000     0.000     0.000     0.000     0.000     0.527     1.702    -1.257     0.374     0.291     0.565     0.542     0.000     0.000     0.000     0.106     0.013     0.010     0.046     0.344     0.859     0.003     0.087     0.000     0.000     0.000     0.000     0.000     0.000     0.000     0.000 .00000E+00 .00000E+00 0.901E-04 0.444E+04 0.000E+00 0.000E+00 0.000E+00 0.000E+00 0.000E+00 0.344E+00     0.978   181.997     0.000
FRSD   37 000060004    6    0    1.10260E-03   576.600     0.000     0.000     0.000   117.297    83.897    92.684    96.151    24.694    13.807     0.690     2.346     0.000     0.000  1004.122  2001.232   229.482   229.482     0.000   224.700     7.685   462.183    89.351    26.316    28.503    24.129    25.324    15.425     0.000     0.050     0.000     0.000     0.000     0.000     0.000     0.000     0.000     0.000     0.000     0.000     0.345     1.143    -0.825     0.291     0.195     0.431     0.427     0.000     0.000     0.000     0.000     0.000     0.000     0.034     0.388     0.280     0.000     0.059     0.000     0.000     0.000     0.000     0.000     0.000     0.000     0.000 .00000E+00 .00000E+00 0.558E-04 0.404E+04 0.000E+00 0.000E+00 0.000E+00 0.000E+00 0.000E+00 0.388E+00     0.316   224.700     0.000
FRSD   38 000060005    6    0    1.30780E-03   576.600     0.000     0.000     0.000   117.297    83.724   161.542   164.778    63.954    38.147     1.907     2.346     0.000     0.000  1015.234  2003.584   234.102   234.102     0.000   183.498    27.727   446.273    89.630    26.316    28.503    24.129    24.455    15.425     0.000     0.016     0.000     0.000     0.000     0.000     0.000     0.000     0.000     0.000     0.000     0.000     0.528     1.703    -1.257     0.375     0.291     0.567     0.542     0.000     0.000     0.000     0.000     0.000     0.000     0.047     0.348     0.839     0.002     0.088     0.000     0.000     0.000     0.000     0.000     0.000     0.000     0.000 .00000E+00 .00000E+00 0.893E-04 0.444E+04 0.000E+00 0.000E+00 0.000E+00 0.000E+00 0.000E+00 0.348E+00     0.946   183.498     0.000
SWCH   39 000070001    7    0    1.30781E-03   576.600     0.000     0.000     0.000   117.314    83.531   161.727   164.786   202.392   132.908     6.645     2.346     0.000     0.000  1065.982  2014.529    91.431    91.431     0.000   184.416   109.089   389.021    77.195    26.316    28.503    24.129    24.434    15.425     0.007     0.044     0.000     0.000     0.000     0.000     0.000     0.000     0.000     0.000     0.000     0.000     4.505     1.877    -0.961     1.181     0.322     1.153     1.005     0.000     0.000     0.000     0.091     0.012     0.006     0.055     0.815     4.281     0.051     0.045     0.000     0.000     0.000     0.000     0.000     0.000     0.000     0.000 .00000E+00 .00000E+00 0.894E-05 0.444E+04 0.000E+00 0.000E+00 0.000E+00 0.000E+00 0.000E+00 0.815E+00     4.084   184.416     0.000
SWCH   40 000070002    7    0    1.20521E-03   576.600     0.000     0.000     0.000   117.314    81.211    92.832    96.190    23.283    12.883     0.644     2.346     0.000     0.000  1003.812  2001.022   182.465   182.465     0.000   274.547     2.274   459.535    86.239    26.316    28.503    24.129    25.250    15.425     0.037     0.074     0.000     0.000     0.000     0.000     0.000     0.000     0.000     0.000     0.000     0.000     4.488     1.348    -0.488     1.210     0.231     1.196     0.973     0.000     0.000     0.000     0.548     0.071     0.038     0.174     1.567     0.384     0.000     0.077     0.000     0.000     0.000     0.000     0.000     0.000     0.000     0.000 .00000E+00 .00000E+00 0.888E-05 0.404E+04 0.000E+00 0.000E+00 0.000E+00 0.000E+00 0.000E+00 0.157E+01     0.248   274.547     0.000
SWCH   41 000070003    7    0    1.31807E-02   576.600     0.000     0.000     0.000   117.314    83.250   161.560   164.786    69.449    43.917     2.196     2.346     0.000     0.000  1018.888  2004.217   187.068   187.068     0.000   224.215    34.030   446.442    86.589    26.316    28.503    24.129    24.436    15.425     0.037     0.069     0.000     0.000     0.000     0.000     0.000     0.000     0.000     0.000     0.000     0.000     4.388     1.876    -0.940     1.164     0.322     1.206     1.037     0.000     0.000     0.000     0.605     0.078     0.044     0.161     1.190     1.529     0.006     0.093     0.000     0.000     0.000     0.000     0.000     0.000     0.000     0.000 .00000E+00 .00000E+00 0.236E-04 0.444E+04 0.000E+00 0.000E+00 0.000E+00 0.000E+00 0.000E+00 0.119E+01     1.130   224.215     0.000
SWCH   42 000070004    7    0    1.12312E-02   576.600     0.000     0.000     0.000   117.314    93.931    20.570    25.614     1.986     1.635     0.082     2.346     0.000     0.000   906.569  2000.245   463.870   463.869     0.000     0.000     0.000   463.945    98.055    26.316    28.503    24.129    25.205    15.425     0.000     0.000     0.000     0.000     0.000     0.000     0.000     0.000     0.000     0.000     0.000     0.000     4.512     0.312     0.272     0.967     0.059     0.830     0.811     3.772     0.000     0.000     0.000     0.000     0.000     0.857     0.000     0.045     0.000     0.062     0.000     0.000     0.000     0.000     0.000     0.000     0.000     0.000 .00000E+00 .00000E+00 0.250E+01 0.404E+04 0.000E+00 0.000E+00 0.000E+00 0.000E+00 0.000E+00 0.000E+00     0.075     0.000     0.000
SWCH   43 000070005    7    0    1.16416E-02   576.600     0.000     0.000     0.000   117.314    81.042    92.612    96.187    14.927     6.874     0.344     2.346     0.000     0.000   949.716  2000.465   182.126   182.126     0.000   282.535     0.000   464.761    86.203    26.316    28.503    24.129    25.252    15.425     0.087     0.075     0.000     0.000     0.000     0.000     0.000     0.000     0.000     0.000     0.000     0.000     4.377     1.345    -0.475     1.201     0.231     1.204     0.980     0.000     0.000     0.000     1.287     0.166     0.091     0.181     1.603     0.208     0.000     0.076     0.000     0.000     0.000     0.000     0.000     0.000     0.000     0.000 .00000E+00 .00000E+00 0.846E-05 0.404E+04 0.000E+00 0.000E+00 0.000E+00 0.000E+00 0.000E+00 0.160E+01     0.100   282.535     0.000
FRSD   44 000070006    7    0    1.41041E-03   576.600     0.000     0.000     0.000   117.314   101.427    33.224    33.883     3.448     1.660     0.083     2.346     0.000     0.000   823.675  2000.187   443.616   443.616     0.000     0.000     0.000   443.666    97.090    26.316    28.503    24.129    25.211    15.425     0.000     0.000     0.000     0.000     0.000     0.000     0.000     0.000     0.000     0.000     0.000     0.000     0.004     0.029    -0.014     0.004     0.005    -0.046    -0.036     0.030     0.000     0.000     0.000     0.000     0.000     0.004     0.000     0.001     0.000     0.072     0.000     0.000     0.000     0.000     0.000     0.000     0.000     0.000 .00000E+00 .00000E+00 0.435E+00 0.404E+04 0.000E+00 0.000E+00 0.000E+00 0.000E+00 0.000E+00 0.000E+00     0.050     0.000     0.000
FRSD   45 000070007    7    0    1.51301E-03   576.600     0.000     0.000     0.000   117.314    83.272    92.219    96.153    11.511     5.582     0.279     2.346     0.000     0.000   929.806  2000.402   228.611   228.611     0.000   237.856     0.000   466.557    89.293    26.316    28.503    24.129    25.320    15.425     0.059     0.103     0.000     0.000     0.000     0.000     0.000     0.000     0.000     0.000     0.000     0.000     0.347     1.136    -0.802     0.299     0.194     0.474     0.497     0.000     0.000     0.000     0.508     0.065     0.051     0.037     0.390     0.081     0.000     0.054     0.000     0.000     0.000     0.000     0.000     0.000     0.000     0.000 .00000E+00 .00000E+00 0.421E-04 0.404E+04 0.000E+00 0.000E+00 0.000E+00 0.000E+00 0.000E+00 0.390E+00     0.091   237.856     0.000
FRSE   46 000070008    7    0    1.16929E-01   576.600     0.000     0.000     0.000   117.314    90.201   160.975   164.684    72.490    43.959     2.198     2.346     0.000     0.000  1014.582  2004.897    68.435    68.435     0.000   326.341    34.448   430.597    73.711    26.316    28.503    24.129    24.876    15.425     1.566     2.787     0.000     0.000     0.000     0.000     0.000     0.000     0.000     0.000     0.000     0.000     0.037     1.675    -1.296     0.004     0.286     0.177     0.228     0.000     0.000     0.000    10.901     1.330     1.006     0.002     0.426     1.762     0.009     0.009     0.000     0.000     0.000     0.000     0.000     0.000     0.000     0.000 .00000E+00 .00000E+00 0.893E-05 0.444E+04 0.000E+00 0.000E+00 0.000E+00 0.000E+00 0.000E+00 0.426E+00     1.373   326.341     0.000
FRSE   47 000070009    7    0    1.48736E-01   576.600     0.000     0.000     0.000   117.314    87.347    91.231    96.084     6.910     3.250     0.163     2.346     0.000     0.000   890.536  2000.268   161.741   161.741     0.000   300.701     0.000   462.507    84.603    26.316    28.503    24.129    25.505    15.425    14.478    11.060     0.000     0.000     0.000     0.000     0.000     0.000     0.000     0.000     0.000     0.000     0.009     1.094    -0.816     0.002     0.187     0.182     0.297     0.000     0.000     0.000    27.547     3.365     2.705     0.005     0.419     0.133     0.000     0.008     0.000     0.000     0.000     0.000     0.000     0.000     0.000     0.000 .00000E+00 .00000E+00 0.242E-04 0.404E+04 0.000E+00 0.000E+00 0.000E+00 0.000E+00 0.000E+00 0.419E+00     0.064   300.701     0.000
FRSE   48 000070010    7    0    1.10260E-03   576.600     0.000     0.000     0.000   117.314   104.349    32.304    31.762     3.344     1.723     0.086     2.346     0.000     0.000   846.124  2000.202   443.882   443.882     0.000     0.001     0.000   443.940    97.392    26.316    28.503    24.129    25.330    15.425     0.000     0.000     0.000     0.000     0.000     0.000     0.000     0.000     0.000     0.000     0.000     0.000     0.000     0.028    -0.016     0.000     0.005    -0.050    -0.040     0.026     0.000     0.000     0.000     0.000     0.000     0.002     0.000     0.001     0.000     0.072     0.000     0.000     0.000     0.000     0.000     0.000     0.000     0.000 .00000E+00 .00000E+00 0.417E+00 0.404E+04 0.000E+00 0.000E+00 0.000E+00 0.000E+00 0.000E+00 0.000E+00     0.058     0.001     0.000
FRSE   49 000070011    7    0    1.27703E-02   576.600     0.000     0.000     0.000   117.314    90.461   161.065   164.684    57.554    34.031     1.702     2.346     0.000     0.000  1010.255  2003.602   233.565   233.565     0.000   181.494    25.584   441.632    89.600    26.316    28.503    24.129    24.876    15.425     2.820     1.615     0.000     0.000     0.000     0.000     0.000     0.000     0.000     0.000     0.000     0.000     0.036     1.669    -1.285     0.004     0.285     0.208     0.272     0.000     0.000     0.000    18.116     2.207     1.693     0.010     0.371     1.933     0.007     0.024     0.000     0.000     0.000     0.000     0.000     0.000     0.000     0.000 .00000E+00 .00000E+00 0.133E-03 0.444E+04 0.000E+00 0.000E+00 0.000E+00 0.000E+00 0.000E+00 0.371E+00     0.989   181.494     0.000
FRSE   50 000070012    7    0    1.61561E-03   576.600     0.000     0.000     0.000   117.314   104.350    32.304    31.763     3.344     1.723     0.086     2.346     0.000     0.000   846.124  2000.202   443.882   443.882     0.000     0.001     0.000   443.941    97.392    26.316    28.503    24.129    25.330    15.425     0.000     0.000     0.000     0.000     0.000     0.000     0.000     0.000     0.000     0.000     0.000     0.000     0.000     0.028    -0.016     0.000     0.005    -0.050    -0.040     0.026     0.000     0.000     0.000     0.000     0.000     0.002     0.000     0.001     0.000     0.072     0.000     0.000     0.000     0.000     0.000     0.000     0.000     0.000 .00000E+00 .00000E+00 0.417E+00 0.404E+04 0.000E+00 0.130E+03 0.195E+04 0.000E+00 0.000E+00 0.000E+00     0.058     0.001     0.000
FRSE    1 000010001    1    0    2.37963E-02   144.700     0.000     0.000     0.000   106.839    70.290   148.126   114.411    25.688    56.799     2.840     2.137     0.000     0.000  1019.281  2007.457    19.966    19.966     0.000    89.366    53.669   165.031    71.542    26.895    29.579    24.211    24.968    16.480     0.550     0.723     0.000     0.000     0.000     0.000     0.000     0.000     0.000     0.000     0.000     0.000     0.019     1.442    -1.185     0.003     0.246    -0.594    -0.033     0.000     5.948     1.220     3.585     0.438     0.322     0.000     0.091     0.475     0.018     0.003     0.000     0.000     0.034     0.273     0.000     2.397     5.000     0.020 .00000E+00 .00000E+00 0.000E+00 0.444E+04 0.000E+00 0.000E+00 0.000E+00 0.000E+00 0.000E+00 0.909E-01     2.031    89.366     0.000
FRSE    2 000010002    1    0    2.64743E-01   144.700     0.000     0.000     0.000   106.839    68.538    80.230    47.554     2.711     4.509     0.225     2.137     0.000     0.000   897.315  2000.402    42.252    42.252     0.000    89.695     0.000   132.048    82.148    26.895    29.579    24.211    25.636    16.480     6.689     7.232     0.000     0.000     0.000     0.000     0.000     0.000     0.000     0.000     0.000     0.000     0.005     0.890    -0.739     0.001     0.152    -0.600     0.041     0.000     5.820     1.219     7.040     0.860     0.692     0.000     0.121     0.071     0.000     0.001     0.000     0.000     0.034     0.298     0.000     2.393     5.000     0.019 .00000E+00 .00000E+00 0.124E-05 0.404E+04 0.000E+00 0.000E+00 0.000E+00 0.000E+00 0.000E+00 0.121E+00     0.101    89.695     0.000
FRSD    3 000010003    1    0    2.51301E-03   144.700     0.000     0.000     0.000   106.839    58.944   150.943   124.874    40.555    91.678     4.584     2.137     0.000     0.000  1041.509  2011.855    36.047    36.047     0.000    61.027    87.774   188.073    81.296    26.895    29.579    24.211    24.632    16.480     0.006     0.004     0.000     0.000     0.000     0.000     0.000     0.000     0.000     0.000     0.000     0.000     0.327     1.467    -1.163     0.230     0.251    -0.268     0.122     0.000     4.410     1.022     0.054     0.007     0.005     0.001     0.068     0.457     0.023     0.011     0.000     0.000     0.087     2.086     0.000     1.681     3.414     0.002 .00000E+00 .00000E+00 0.101E-05 0.444E+04 0.000E+00 0.000E+00 0.000E+00 0.000E+00 0.000E+00 0.679E-01     3.226    61.027     0.000
FRSD    4 000010004    1    0    2.17442E-02   144.700     0.000     0.000     0.000   106.839    56.413    83.252    59.007     5.036     9.234     0.462     2.137     0.000     0.000   991.277  2000.869    56.656    56.656     0.000    71.354     0.000   128.229    87.983    26.895    29.579    24.211    25.468    16.480     0.038     0.045     0.000     0.000     0.000     0.000     0.000     0.000     0.000     0.000     0.000     0.000     0.232     0.943    -0.732     0.199     0.161    -0.180     0.196     0.000     3.417     0.860     0.240     0.031     0.024     0.003     0.096     0.065     0.000     0.011     0.000     0.000     0.087     4.282     0.000     1.402     3.159     0.002 .00000E+00 .00000E+00 0.263E-05 0.404E+04 0.000E+00 0.000E+00 0.000E+00 0.000E+00 0.000E+00 0.959E-01     0.220    71.354     0.000
FRSD    5 000010005    1    0    2.10260E-03   144.700     0.000     0.000     0.000   106.839    59.085   150.933   124.678    14.791    30.135     1.507     2.137     0.000     0.000  1009.541  2003.282    57.416    57.416     0.000    59.880    27.293   145.449    88.902    26.895    29.579    24.211    24.614    16.480     0.000     0.002     0.000     0.000     0.000     0.000     0.000     0.000     0.000     0.000     0.000     0.000     0.357     1.477    -1.132     0.254     0.252    -0.225     0.198     0.000     6.034     1.146     0.000     0.000     0.000     0.004     0.090     0.225     0.003     0.019     0.000     0.000     0.087     0.440     0.000     1.910     3.588     0.003 .00000E+00 .00000E+00 0.446E-05 0.444E+04 0.000E+00 0.000E+00 0.000E+00 0.000E+00 0.000E+00 0.901E-01     0.860    59.880     0.000
FRSD    6 000010006    1    0    2.14364E-02   144.700     0.000     0.000     0.000   106.839    56.298    83.265    59.127     7.035    13.568     0.678     2.137     0.000     0.000  1003.908  2001.403    56.656    56.656     0.000    69.106    11.140   137.264    87.985    26.895    29.579    24.211    25.470    16.480     0.029     0.039     0.000     0.000     0.000     0.000     0.000     0.000     0.000     0.000     0.000     0.000     0.230     0.944    -0.741     0.195     0.161    -0.182     0.178     0.000     3.266     0.827     0.197     0.025     0.019     0.002     0.095     0.104     0.000     0.011     0.000     0.000     0.087     4.740     0.000     1.349     3.106     0.002 .00000E+00 .00000E+00 0.294E-05 0.404E+04 0.000E+00 0.000E+00 0.000E+00 0.000E+00 0.000E+00 0.947E-01     0.363    69.106     0.000
FRSD    7 000010007    1    0    2.51301E-03   144.700     0.000     0.000     0.000   106.839    59.080   150.933   124.686    17.305    35.779     1.789     2.137     0.000     0.000  1012.844  2004.014    57.416    57.416     0.000    57.058    32.759   148.293    88.902    26.895    29.579    24.211    24.615    16.480     0.007     0.002     0.000     0.000     0.000     0.000     0.000     0.000     0.000     0.000     0.000     0.000     0.354     1.475    -1.137     0.252     0.252    -0.231     0.191     0.000     5.904     1.141     0.059     0.008     0.005     0.004     0.086     0.260     0.004     0.019     0.000     0.000     0.087     0.518     0.000     1.899     3.580     0.003 .00000E+00 .00000E+00 0.472E-05 0.444E+04 0.000E+00 0.000E+00 0.000E+00 0.000E+00 0.000E+00 0.855E-01     1.061    57.058     0.000
FRSD    8 000010008    1    0    2.18469E-02   144.700     0.000     0.000     0.000   106.839    56.300    83.265    59.126     6.993    13.477     0.674     2.137     0.000     0.000  1004.087  2001.391    56.656    56.656     0.000    69.153    10.969   137.137    87.985    26.895    29.579    24.211    25.470    16.480     0.030     0.030     0.000     0.000     0.000     0.000     0.000     0.000     0.000     0.000     0.000     0.000     0.230     0.943    -0.741     0.195     0.161    -0.182     0.179     0.000     3.268     0.828     0.202     0.026     0.020     0.002     0.095     0.104     0.000     0.011     0.000     0.000     0.087     4.734     0.000     1.350     3.106     0.002 .00000E+00 .00000E+00 0.293E-05 0.404E+04 0.000E+00 0.000E+00 0.000E+00 0.000E+00 0.000E+00 0.946E-01     0.360    69.153     0.000
FRSE    9 000020001    2    0    2.41041E-02   144.700     0.000     0.000     0.000   106.822    70.279   148.128   114.420    23.413    51.498     2.575     2.136     0.000     0.000  1016.929  2006.706    19.966    19.966     0.000    91.943    48.523   162.258    71.543    26.895    29.579    24.211    24.968    16.480     0.626     0.816     0.000     0.000     0.000     0.000     0.000     0.000     0.000     0.000     0.000     0.000     0.021     1.441    -1.182     0.003     0.246    -0.590    -0.023     0.000     6.295     1.229     3.753     0.458     0.340     0.000     0.096     0.462     0.015     0.003     0.000     0.000     0.034     0.149     0.000     2.416     5.000     0.020 .00000E+00 .00000E+00 0.000E+00 0.444E+04 0.000E+00 0.000E+00 0.000E+00 0.000E+00 0.000E+00 0.957E-01     1.826    91.943     0.000
FRSE   10 000020002    2    0    2.65973E-01   144.700     0.000     0.000     0.000   106.822    68.527    80.232    47.563     2.473     4.112     0.206     2.136     0.000     0.000   886.561  2000.361    42.252    42.252     0.000    89.969     0.000   132.313    82.149    26.895    29.579    24.211    25.636    16.480     9.000     9.704     0.000     0.000     0.000     0.000     0.000     0.000     0.000     0.000     0.000     0.000     0.004     0.888    -0.738     0.001     0.152    -0.598     0.040     0.000     5.805     1.218     7.096     0.866     0.701     0.000     0.123     0.064     0.000     0.001     0.000     0.000     0.034     0.303     0.000     2.392     5.000     0.019 .00000E+00 .00000E+00 0.124E-05 0.404E+04 0.000E+00 0.000E+00 0.000E+00 0.000E+00 0.000E+00 0.123E+00     0.092    89.969     0.000
FRSD   11 000020003    2    0    2.51301E-03   144.700     0.000     0.000     0.000   106.822    59.049   150.938   124.737    19.915    43.379     2.169     2.136     0.000     0.000  1017.330  2005.209    36.047    36.047     0.000    78.546    40.552   156.539    81.295    26.895    29.579    24.211    24.622    16.480     0.006     0.016     0.000     0.000     0.000     0.000     0.000     0.000     0.000     0.000     0.000     0.000     0.342     1.474    -1.146     0.244     0.252    -0.230     0.182     0.000     5.276     1.108     0.054     0.007     0.005     0.002     0.089     0.272     0.006     0.012     0.000     0.000     0.087     0.956     0.000     1.837     3.535     0.003 .00000E+00 .00000E+00 0.000E+00 0.444E+04 0.000E+00 0.000E+00 0.000E+00 0.000E+00 0.000E+00 0.891E-01     1.394    78.546     0.000
FRSD   12 000020004    2    0    2.30781E-03   144.700     0.000     0.000     0.000   106.822    56.200    83.277    59.225     8.440    16.641     0.832     2.136     0.000     0.000  1003.429  2001.788    56.656    56.656     0.000    67.527    14.697   139.347    87.988    26.895    29.579    24.211    25.471    16.480     0.018     0.008     0.000     0.000     0.000     0.000     0.000     0.000     0.000     0.000     0.000     0.000     0.230     0.947    -0.749     0.193     0.162    -0.187     0.162     0.000     3.168     0.806     0.135     0.017     0.013     0.002     0.094     0.131     0.001     0.012     0.000     0.000     0.087     5.050     0.000     1.314     3.069     0.002 .00000E+00 .00000E+00 0.309E-05 0.404E+04 0.000E+00 0.000E+00 0.000E+00 0.000E+00 0.000E+00 0.935E-01     0.467    67.527     0.000
FRSD   13 000020005    2    0    2.30781E-03   144.700     0.000     0.000     0.000   106.822    59.073   150.936   124.688    14.539    29.572     1.479     2.136     0.000     0.000  1009.384  2003.210    57.416    57.416     0.000    60.163    26.745   145.165    88.902    26.895    29.579    24.211    24.614    16.480     0.008     0.002     0.000     0.000     0.000     0.000     0.000     0.000     0.000     0.000     0.000     0.000     0.356     1.475    -1.130     0.253     0.252    -0.222     0.203     0.000     6.039     1.146     0.067     0.008     0.006     0.004     0.090     0.221     0.003     0.018     0.000     0.000     0.087     0.438     0.000     1.910     3.588     0.003 .00000E+00 .00000E+00 0.445E-05 0.444E+04 0.000E+00 0.000E+00 0.000E+00 0.000E+00 0.000E+00 0.903E-01     0.841    60.163     0.000
FRSD   14 000020006    2    0    2.20520E-03   144.700     0.000     0.000     0.000   106.822    56.070    83.292    59.359    10.304    20.752     1.038     2.136     0.000     0.000  1003.976  2002.312    56.656    56.656     0.000    65.431    18.749   141.445    87.990    26.895    29.579    24.211    25.473    16.480     0.015     0.017     0.000     0.000     0.000     0.000     0.000     0.000     0.000     0.000     0.000     0.000     0.228     0.949    -0.755     0.190     0.162    -0.188     0.148     0.000     3.034     0.776     0.115     0.014     0.011     0.002     0.091     0.162     0.001     0.013     0.000     0.000     0.087     5.498     0.000     1.264     3.016     0.002 .00000E+00 .00000E+00 0.328E-05 0.404E+04 0.000E+00 0.000E+00 0.000E+00 0.000E+00 0.000E+00 0.909E-01     0.610    65.431     0.000
FRSD   15 000020007    2    0    2.20520E-03   144.700     0.000     0.000     0.000   106.822    59.073   150.936   124.688    15.244    31.150     1.557     2.136     0.000     0.000  1010.039  2003.409    57.416    57.416     0.000    59.372    28.277   145.961    88.902    26.895    29.579    24.211    24.614    16.480     0.007     0.002     0.000     0.000     0.000     0.000     0.000     0.000     0.000     0.000     0.000     0.000     0.356     1.476    -1.133     0.253     0.252    -0.225     0.198     0.000     6.007     1.146     0.062     0.008     0.006     0.004     0.089     0.231     0.003     0.019     0.000     0.000     0.087     0.451     0.000     1.908     3.586     0.003 .00000E+00 .00000E+00 0.452E-05 0.444E+04 0.000E+00 0.000E+00 0.000E+00 0.000E+00 0.000E+00 0.892E-01     0.896    59.372     0.000
FRSD   16 000020008    2    0    2.61561E-03   144.700     0.000     0.000     0.000   106.822    56.132    83.285    59.296     9.377    18.700     0.935     2.136     0.000     0.000  1003.356  2002.045    56.656    56.656     0.000    66.472    16.757   140.423    87.989    26.895    29.579    24.211    25.472    16.480     0.020     0.030     0.000     0.000     0.000     0.000     0.000     0.000     0.000     0.000     0.000     0.000     0.228     0.946    -0.750     0.191     0.162    -0.185     0.158     0.000     3.095     0.789     0.149     0.019     0.014     0.002     0.092     0.147     0.001     0.012     0.000     0.000     0.087     5.291     0.000     1.287     3.041     0.002 .00000E+00 .00000E+00 0.319E-05 0.404E+04 0.000E+00 0.000E+00 0.000E+00 0.000E+00 0.000E+00 0.920E-01     0.538    66.472     0.000
SWCH   17 000030001    3    0    2.14364E-02   144.700     0.000     0.000     0.000   106.851    74.129   148.426   109.380    12.341    26.452     1.323     2.137     0.000     0.000  1008.393  2002.922    25.260    25.260     0.000    99.807    24.327   150.163    75.188    26.895    29.579    24.211    24.608    16.480     0.021     0.060     0.000     0.000   112.817     0.000     0.000     0.000     0.000     0.000     0.000     0.000     3.021     1.605    -0.838     0.801     0.275    -0.600     0.490     0.000    38.356     3.364     0.248     0.032     0.018     0.006     0.334     0.292     0.004     0.012     0.000     0.000     0.092     3.024     0.000     2.526     5.003     0.003 .00000E+00 .00000E+00 0.000E+00 0.444E+04 0.000E+00 0.000E+00 0.000E+00 0.000E+00 0.000E+00 0.334E+00     0.769    99.807     0.000
FRSE   18 000030002    3    0    2.20521E-03   144.700     0.000     0.000     0.000   106.851    69.639   148.393   115.105   105.188   243.853    12.193     2.137     0.000     0.000  1116.141  2034.229    19.991    26.764     0.000     0.010   236.866   273.088    71.589    26.895    29.579    24.211    25.000    16.480     0.000     0.038     0.000     0.000     0.000     0.000     0.000     0.000     0.000     0.000     0.000     0.000     0.011     1.461    -1.219     0.002     0.250    -0.511    -0.222     0.000     2.459     0.728     0.000     0.000     0.000     0.000     0.000     0.568     0.103     0.008     0.000     0.000     0.034     7.599     0.000     1.426     4.881     0.012 .00000E+00 .00000E+00 0.000E+00 0.444E+04 0.000E+00 0.000E+00 0.000E+00 0.000E+00 0.000E+00 0.206E-05     9.448     0.010     0.000
FRSE   19 000030003    3    0    2.10260E-03   144.700     0.000     0.000     0.000   106.851    69.675   148.363   115.065   103.523   240.156    12.008     2.137     0.000     0.000  1113.852  2033.698    19.985    20.145     0.000     3.134   233.245   265.825    71.584    26.895    29.579    24.211    25.000    16.480     0.039     0.144     0.000     0.000     0.000     0.000     0.000     0.000     0.000     0.000     0.000     0.000     0.011     1.459    -1.217     0.002     0.249    -0.510    -0.215     0.000     2.473     0.732     0.459     0.056     0.037     0.000     0.002     0.565     0.101     0.005     0.000     0.000     0.034     7.539     0.000     1.433     4.889     0.012 .00000E+00 .00000E+00 0.000E+00 0.444E+04 0.000E+00 0.000E+00 0.000E+00 0.000E+00 0.000E+00 0.217E-02     9.300     3.134     0.000
FRSE   20 000030004    3    0    2.18058E-01   144.700     0.000     0.000     0.000   106.851    70.299   148.121   114.404    12.784    26.897     1.345     2.137     0.000     0.000  1006.447  2003.293    19.965    19.966     0.000   103.982    24.722   149.554    71.542    26.895    29.579    24.211    24.968    16.480     1.426     4.394     0.000     0.000     0.000     0.000     0.000     0.000     0.000     0.000     0.000     0.000     0.021     1.434    -1.162     0.002     0.245    -0.557     0.029     0.000     6.884     1.239     4.788     0.583     0.449     0.000     0.120     0.374     0.006     0.002     0.000     0.000     0.034     0.000     0.000     2.439     5.000     0.020 .00000E+00 .00000E+00 0.000E+00 0.444E+04 0.000E+00 0.000E+00 0.000E+00 0.000E+00 0.000E+00 0.120E+00     0.885   103.982     0.000
FRSE   21 000030005    3    0    2.10096E+00   144.700     0.000     0.000     0.000   106.851    68.547    80.228    47.547     2.218     3.688     0.184     2.137     0.000     0.000   872.891  2000.333    42.252    42.252     0.000    90.258     0.000   132.592    82.147    26.895    29.579    24.211    25.636    16.480    13.066    13.377     0.000     0.000     0.000     0.000     0.000     0.000     0.000     0.000     0.000     0.000     0.002     0.886    -0.737     0.001     0.151    -0.595     0.039     0.000     5.795     1.218     6.951     0.849     0.690     0.000     0.125     0.057     0.000     0.001     0.000     0.000     0.034     0.306     0.000     2.392     5.000     0.019 .00000E+00 .00000E+00 0.124E-05 0.404E+04 0.000E+00 0.000E+00 0.000E+00 0.000E+00 0.000E+00 0.125E+00     0.082    90.258     0.000
FRSD   22 000030006    3    0    2.12312E-02   144.700     0.000     0.000     0.000   106.851    59.070   150.933   124.721    20.082    43.767     2.188     2.137     0.000     0.000  1017.613  2005.258    36.047    36.047     0.000    78.354    40.930   156.740    81.295    26.895    29.579    24.211    24.622    16.480     0.006     0.019     0.000     0.000     0.000     0.000     0.000     0.000     0.000     0.000     0.000     0.000     0.341     1.473    -1.146     0.243     0.252    -0.230     0.183     0.000     5.264     1.107     0.058     0.007     0.005     0.002     0.089     0.273     0.006     0.012     0.000     0.000     0.087     0.967     0.000     1.835     3.534     0.003 .00000E+00 .00000E+00 0.000E+00 0.444E+04 0.000E+00 0.000E+00 0.000E+00 0.000E+00 0.000E+00 0.888E-01     1.409    78.354     0.000
FRSE   23 000040001    4    0    2.76952E-02   144.700     0.000     0.000     0.000   106.892    70.327   148.116   114.382    19.784    43.070     2.154     2.138     0.000     0.000  1012.893  2005.531    19.965    19.965     0.000    96.046    40.357   157.870    71.541    26.895    29.579    24.211    24.968    16.480     0.827     2.173     0.000     0.000     0.000     0.000     0.000     0.000     0.000     0.000     0.000     0.000     0.023     1.438    -1.175     0.003     0.246    -0.581    -0.006     0.000     6.884     1.239     4.106     0.501     0.377     0.000     0.103     0.436     0.012     0.002     0.000     0.000     0.034     0.000     0.000     2.439     5.000     0.020 .00000E+00 .00000E+00 0.000E+00 0.444E+04 0.000E+00 0.000E+00 0.000E+00 0.000E+00 0.000E+00 0.103E+00     1.501    96.046     0.000
FRSE   24 000040002    4    0    2.10722E+00   144.700     0.000     0.000     0.000   106.892    68.574    80.221    47.525     2.296     3.819     0.191     2.138     0.000     0.000   877.221  2000.346    42.251    42.251     0.000    90.165     0.000   132.501    82.146    26.895    29.579    24.211    25.636    16.480    12.014    12.217     0.000     0.000     0.000     0.000     0.000     0.000     0.000     0.000     0.000     0.000     0.003     0.887    -0.737     0.001     0.151    -0.596     0.039     0.000     5.797     1.218     7.007     0.856     0.695     0.000     0.124     0.059     0.000     0.001     0.000     0.000     0.034     0.306     0.000     2.392     5.000     0.019 .00000E+00 .00000E+00 0.123E-05 0.404E+04 0.000E+00 0.000E+00 0.000E+00 0.000E+00 0.000E+00 0.124E+00     0.085    90.165     0.000
FRSE   25 000040003    4    0    2.10261E-03   144.700     0.000     0.000     0.000   106.892    70.325   148.117   114.386    48.309   107.629     5.381     2.138     0.000     0.000  1039.167  2014.570    43.102    43.102     0.000    42.928   103.116   193.141    83.928    26.895    29.579    24.211    24.971    16.480     0.609     0.405     0.000     0.000     0.000     0.000     0.000     0.000     0.000     0.000     0.000     0.000     0.014     1.436    -1.192     0.003     0.245    -0.606    -0.078     0.000     4.405     1.123     4.007     0.489     0.358     0.000     0.047     0.617     0.047     0.006     0.000     0.000     0.034     1.619     0.000     2.196     5.000     0.018 .00000E+00 .00000E+00 0.198E-05 0.444E+04 0.000E+00 0.000E+00 0.000E+00 0.000E+00 0.000E+00 0.466E-01     3.995    42.928     0.000
SWCH   26 000050001    5    0    2.46170E-02   144.700     0.000     0.000     0.000   106.707    73.995   148.466   109.496    10.449    21.934     1.097     2.134     0.000     0.000  1007.146  2002.301    25.262    25.262     0.000   101.961    19.610   147.431    75.195    26.895    29.579    24.211    24.608    16.480     0.029     0.011     0.000     0.000   112.379     0.000     0.000     0.000     0.000     0.000     0.000     0.000     3.006     1.605    -0.832     0.799     0.275    -0.597     0.495     0.000    38.374     3.360     0.332     0.043     0.025     0.007     0.341     0.246     0.002     0.012     0.000     0.000     0.092     3.013     0.000     2.527     5.010     0.003 .00000E+00 .00000E+00 0.000E+00 0.444E+04 0.000E+00 0.000E+00 0.000E+00 0.000E+00 0.000E+00 0.341E+00     0.598   101.961     0.000
SWCH   27 000050002    5    0    2.10260E-02   144.700     0.000     0.000     0.000   106.707    72.249    80.622    42.632     2.989     4.317     0.216     2.134     0.000     0.000   849.535  2000.278    46.166    46.166     0.000    86.287     0.000   132.515    83.769    26.895    29.579    24.211    25.393    16.480     0.061     0.017     0.000     0.000   108.473     0.000     0.000     0.000     0.000     0.000     0.000     0.000     2.944     1.087    -0.418     0.822     0.187    -0.625     0.499     0.000    38.745     3.380     0.641     0.082     0.047     0.016     0.362     0.043     0.000     0.017     0.000     0.000     0.092     3.035     0.000     2.552     5.010     0.003 .00000E+00 .00000E+00 0.000E+00 0.404E+04 0.000E+00 0.000E+00 0.000E+00 0.000E+00 0.000E+00 0.362E+00     0.062    86.287     0.000
FRSE   28 000050003    5    0    2.93367E-02   144.700     0.000     0.000     0.000   106.707    70.202   148.148   114.482    22.464    49.286     2.464     2.134     0.000     0.000  1015.900  2006.398    19.967    19.967     0.000    93.028    46.374   161.109    71.546    26.895    29.579    24.211    24.968    16.480     0.728     0.380     0.000     0.000     0.000     0.000     0.000     0.000     0.000     0.000     0.000     0.000     0.021     1.439    -1.179     0.003     0.246    -0.588    -0.017     0.000     6.447     1.233     3.937     0.480     0.359     0.000     0.098     0.456     0.014     0.003     0.000     0.000     0.034     0.104     0.000     2.423     5.000     0.020 .00000E+00 .00000E+00 0.000E+00 0.444E+04 0.000E+00 0.000E+00 0.000E+00 0.000E+00 0.000E+00 0.976E-01     1.740    93.028     0.000
FRSE   29 000050004    5    0    2.20520E-02   144.700     0.000     0.000     0.000   106.707    68.451    80.251    47.624     2.490     4.140     0.207     2.134     0.000     0.000   887.194  2000.367    42.255    42.255     0.000    89.958     0.000   132.306    82.153    26.895    29.579    24.211    25.637    16.480     5.807     9.473     0.000     0.000     0.000     0.000     0.000     0.000     0.000     0.000     0.000     0.000     0.005     0.892    -0.740     0.001     0.152    -0.601     0.041     0.000     5.819     1.219     6.970     0.851     0.684     0.000     0.124     0.065     0.000     0.002     0.000     0.000     0.034     0.299     0.000     2.393     5.000     0.019 .00000E+00 .00000E+00 0.127E-05 0.404E+04 0.000E+00 0.000E+00 0.000E+00 0.000E+00 0.000E+00 0.124E+00     0.092    89.958     0.000
FRSD   30 000050005    5    0    2.15390E-02   144.700     0.000     0.000     0.000   106.707    58.994   150.956   124.762     8.824    17.865     0.893     2.134     0.000     0.000  1004.685  2001.834    36.049    36.049     0.000    91.093    15.565   143.180    81.298    26.895    29.579    24.211    24.617    16.480     0.016     0.006     0.000     0.000     0.000     0.000     0.000     0.000     0.000     0.000     0.000     0.000     0.351     1.471    -1.116     0.251     0.252    -0.186     0.241     0.000     5.907     1.141     0.112     0.014     0.011     0.002     0.101     0.131     0.001     0.011     0.000     0.000     0.087     0.516     0.000     1.899     3.580     0.003 .00000E+00 .00000E+00 0.000E+00 0.444E+04 0.000E+00 0.000E+00 0.000E+00 0.000E+00 0.000E+00 0.101E+00     0.473    91.093     0.000
FRSD   31 000050006    5    0    2.41040E-03   144.700     0.000     0.000     0.000   106.707    56.430    83.260    58.972     3.100     5.002     0.250     2.134     0.000     0.000   882.093  2000.384    56.658    56.658     0.000    73.538     0.000   130.287    87.984    26.895    29.579    24.211    25.467    16.480     0.044     0.066     0.000     0.000     0.000     0.000     0.000     0.000     0.000     0.000     0.000     0.000     0.232     0.947    -0.720     0.200     0.162    -0.178     0.209     0.000     3.565     0.890     0.260     0.033     0.026     0.003     0.096     0.028     0.000     0.011     0.000     0.000     0.087     3.841     0.000     1.452     3.209     0.002 .00000E+00 .00000E+00 0.203E-05 0.404E+04 0.000E+00 0.000E+00 0.000E+00 0.000E+00 0.000E+00 0.960E-01     0.092    73.538     0.000
FRSD   32 000050007    5    0    2.11286E-02   144.700     0.000     0.000     0.000   106.707    58.986   150.956   124.765    18.507    38.485     1.924     2.134     0.000     0.000  1014.450  2004.377    57.417    57.417     0.000    55.722    35.381   149.678    88.904    26.895    29.579    24.211    24.615    16.480     0.007     0.004     0.000     0.000     0.000     0.000     0.000     0.000     0.000     0.000     0.000     0.000     0.353     1.474    -1.138     0.251     0.252    -0.234     0.188     0.000     5.845     1.138     0.059     0.008     0.005     0.004     0.083     0.276     0.005     0.019     0.000     0.000     0.087     0.548     0.000     1.895     3.577     0.003 .00000E+00 .00000E+00 0.492E-05 0.444E+04 0.000E+00 0.000E+00 0.000E+00 0.000E+00 0.000E+00 0.833E-01     1.158    55.722     0.000
FRSD   33 000050008    5    0    2.71821E-03   144.700     0.000     0.000     0.000   106.707    58.962   150.957   124.806    32.156    69.537     3.477     2.134     0.000     0.000  1030.670  2008.548    57.417    57.417     0.000    44.375    65.611   169.705    88.904    26.895    29.579    24.211    24.621    16.480     0.008     0.008     0.000     0.000     0.000     0.000     0.000     0.000     0.000     0.000     0.000     0.000     0.344     1.467    -1.152     0.245     0.251    -0.264     0.153     0.000     5.247     1.106     0.064     0.008     0.006     0.003     0.066     0.438     0.015     0.017     0.000     0.000     0.087     0.981     0.000     1.833     3.533     0.003 .00000E+00 .00000E+00 0.615E-05 0.444E+04 0.000E+00 0.000E+00 0.000E+00 0.000E+00 0.000E+00 0.658E-01     2.302    44.375     0.000
FRSE   34 000060001    6    0    2.23598E-02   144.700     0.000     0.000     0.000   106.671    70.178   148.154   114.501    22.373    49.072     2.454     2.133     0.000     0.000  1015.801  2006.367    19.968    19.968     0.000    93.135    46.166   161.000    71.548    26.895    29.579    24.211    24.968    16.480     0.620     0.195     0.000     0.000     0.000     0.000     0.000     0.000     0.000     0.000     0.000     0.000     0.022     1.441    -1.181     0.003     0.246    -0.588    -0.021     0.000     6.473     1.233     3.747     0.457     0.339     0.000     0.098     0.456     0.014     0.003     0.000     0.000     0.034     0.101     0.000     2.424     5.000     0.020 .00000E+00 .00000E+00 0.000E+00 0.444E+04 0.000E+00 0.000E+00 0.000E+00 0.000E+00 0.000E+00 0.980E-01     1.731    93.135     0.000
FRSD   35 000060002    6    0    2.10260E-03   144.700     0.000     0.000     0.000   106.671    56.127    83.299    59.276     8.041    15.765     0.788     2.133     0.000     0.000  1003.324  2001.674    56.659    56.659     0.000    67.990    13.777   138.864    87.991    26.895    29.579    24.211    25.470    16.480     0.017     0.024     0.000     0.000     0.000     0.000     0.000     0.000     0.000     0.000     0.000     0.000     0.231     0.950    -0.749     0.194     0.162    -0.190     0.161     0.000     3.205     0.814     0.128     0.016     0.012     0.002     0.094     0.124     0.001     0.013     0.000     0.000     0.087     4.932     0.000     1.327     3.083     0.002 .00000E+00 .00000E+00 0.310E-05 0.404E+04 0.000E+00 0.000E+00 0.000E+00 0.000E+00 0.000E+00 0.943E-01     0.437    67.990     0.000
FRSD   36 000060003    6    0    2.71820E-03   144.700     0.000     0.000     0.000   106.671    58.960   150.962   124.786    18.844    39.246     1.962     2.133     0.000     0.000  1014.642  2004.474    57.418    57.418     0.000    55.347    36.121   150.072    88.904    26.895    29.579    24.211    24.615    16.480     0.006     0.003     0.000     0.000     0.000     0.000     0.000     0.000     0.000     0.000     0.000     0.000     0.353     1.475    -1.140     0.251     0.252    -0.236     0.185     0.000     5.832     1.138     0.056     0.007     0.005     0.004     0.083     0.280     0.005     0.019     0.000     0.000     0.087     0.555     0.000     1.894     3.576     0.003 .00000E+00 .00000E+00 0.497E-05 0.444E+04 0.000E+00 0.000E+00 0.000E+00 0.000E+00 0.000E+00 0.828E-01     1.186    55.347     0.000
FRSD   37 000060004    6    0    2.10260E-03   144.700     0.000     0.000     0.000   106.671    56.152    83.296    59.250     7.659    14.930     0.746     2.133     0.000     0.000  1003.305  2001.570    56.659    56.659     0.000    68.420    12.867   138.355    87.991    26.895    29.579    24.211    25.470    16.480     0.017     0.025     0.000     0.000     0.000     0.000     0.000     0.000     0.000     0.000     0.000     0.000     0.231     0.950    -0.748     0.195     0.162    -0.190     0.163     0.000     3.234     0.820     0.132     0.017     0.013     0.003     0.095     0.117     0.001     0.013     0.000     0.000     0.087     4.841     0.000     1.338     3.094     0.002 .00000E+00 .00000E+00 0.305E-05 0.404E+04 0.000E+00 0.000E+00 0.000E+00 0.000E+00 0.000E+00 0.948E-01     0.409    68.420     0.000
FRSD   38 000060005    6    0    2.30780E-03   144.700     0.000     0.000     0.000   106.671    58.961   150.962   124.785    18.426    38.302     1.915     2.133     0.000     0.000  1014.284  2004.347    57.418    57.418     0.000    55.816    35.203   149.589    88.904    26.895    29.579    24.211    24.615    16.480     0.006     0.003     0.000     0.000     0.000     0.000     0.000     0.000     0.000     0.000     0.000     0.000     0.354     1.476    -1.140     0.252     0.252    -0.236     0.185     0.000     5.856     1.139     0.053     0.007     0.005     0.004     0.084     0.275     0.005     0.019     0.000     0.000     0.087     0.542     0.000     1.895     3.578     0.003 .00000E+00 .00000E+00 0.493E-05 0.444E+04 0.000E+00 0.000E+00 0.000E+00 0.000E+00 0.000E+00 0.837E-01     1.152    55.816     0.000
SWCH   39 000070001    7    0    2.30781E-03   144.700     0.000     0.000     0.000   106.710    73.667   148.538   109.798    51.853   120.614     6.031     2.134     0.000     0.000  1060.748  2016.141    25.263    25.263     0.000    61.148   117.683   208.512    75.207    26.895    29.579    24.211    24.605    16.480     0.006     0.006     0.000     0.000   118.567     0.000     0.000     0.000     0.000     0.000     0.000     0.000     3.162     1.600    -0.869     0.830     0.274    -0.570     0.439     0.000    37.526     3.289     0.078     0.010     0.006     0.005     0.201     1.100     0.073     0.011     0.000     0.000     0.092     3.277     0.000     2.472     4.790     0.003 .00000E+00 .00000E+00 0.000E+00 0.444E+04 0.000E+00 0.000E+00 0.000E+00 0.000E+00 0.000E+00 0.201E+00     4.418    61.148     0.000
SWCH   40 000070002    7    0    2.20521E-03   144.700     0.000     0.000     0.000   106.710    72.039    80.669    42.770     6.940    13.827     0.691     2.134     0.000     0.000  1004.537  2001.364    46.172    46.172     0.000    81.919    10.277   138.717    83.781    26.895    29.579    24.211    25.382    16.480     0.024     0.009     0.000     0.000   113.423     0.000     0.000     0.000     0.000     0.000     0.000     0.000     3.103     1.084    -0.441     0.838     0.186    -0.615     0.487     0.000    39.080     3.380     0.269     0.035     0.019     0.014     0.353     0.176     0.001     0.018     0.000     0.000     0.092     3.021     0.000     2.574     4.954     0.003 .00000E+00 .00000E+00 0.000E+00 0.404E+04 0.000E+00 0.000E+00 0.000E+00 0.000E+00 0.000E+00 0.353E+00     0.349    81.919     0.000
SWCH   41 000070003    7    0    2.31807E-02   144.700     0.000     0.000     0.000   106.710    74.040   148.456   109.435    19.384    42.011     2.101     2.134     0.000     0.000  1016.921  2004.985    46.952    46.952     0.000    66.980    39.743   155.008    85.373    26.895    29.579    24.211    24.603    16.480     0.020     0.014     0.000     0.000   113.526     0.000     0.000     0.000     0.000     0.000     0.000     0.000     3.053     1.599    -0.851     0.811     0.274    -0.677     0.460     0.000    39.291     3.442     0.235     0.030     0.017     0.014     0.281     0.501     0.010     0.021     0.000     0.000     0.092     2.811     0.000     2.587     5.077     0.003 .00000E+00 .00000E+00 0.123E-05 0.444E+04 0.000E+00 0.000E+00 0.000E+00 0.000E+00 0.000E+00 0.281E+00     1.333    66.980     0.000
SWCH   42 000070004    7    0    2.12312E-02   144.700     0.000     0.000     0.000   106.710    49.665    14.183     0.000     1.203     1.674     0.084     2.134     0.000     0.000   906.026  2000.257   119.443   119.443     0.000     0.000     0.000   119.516    84.432    26.895    29.579    24.211    25.009    16.480     0.000     0.000     0.000     0.000   102.592     0.000     0.000     0.000     0.000     0.000     0.000     0.000     3.361     0.204     0.249     0.722     0.039     0.173     0.315    50.491    18.782     0.768     0.000     0.000     0.000     0.115     0.000     0.111     0.000     0.014     0.000     8.825     0.092     0.988     0.000     0.539     2.092     0.001 .00000E+00 .00000E+00 0.245E+01 0.404E+04 0.000E+00 0.000E+00 0.000E+00 0.000E+00 0.000E+00 0.000E+00     0.072     0.000     0.000
SWCH   43 000070005    7    0    2.16416E-02   144.700     0.000     0.000     0.000   106.710    72.198    80.633    42.639     4.704     8.599     0.430     2.134     0.000     0.000   955.750  2000.718    46.170    46.170     0.000    84.406     0.000   130.752    83.771    26.895    29.579    24.211    25.386    16.480     0.046     0.066     0.000     0.000   111.453     0.000     0.000     0.000     0.000     0.000     0.000     0.000     3.023     1.083    -0.431     0.831     0.186    -0.638     0.494     0.000    39.283     3.414     0.500     0.064     0.036     0.015     0.365     0.108     0.000     0.017     0.000     0.000     0.092     2.954     0.000     2.587     5.024     0.003 .00000E+00 .00000E+00 0.000E+00 0.404E+04 0.000E+00 0.000E+00 0.000E+00 0.000E+00 0.000E+00 0.365E+00     0.176    84.406     0.000
FRSD   44 000070006    7    0    2.41041E-03   144.700     0.000     0.000     0.000   106.710    54.472    17.262     0.000     1.481     2.244     0.112     2.134     0.000     0.000   823.672  2000.238   122.626   122.626     0.000     0.000     0.000   122.688    91.702    26.895    29.579    24.211    25.526    16.480     0.000     0.000     0.000     0.000     0.000     0.000     0.000     0.000     0.000     0.000     0.000     0.000     0.003     0.020    -0.013     0.003     0.003    -0.063    -0.048     0.008     0.022     0.058     0.000     0.000     0.000     0.000     0.000     0.000     0.000     0.019     0.000     6.935     0.087    21.038     0.000     0.059     0.890     0.000 .00000E+00 .00000E+00 0.225E+01 0.404E+04 0.000E+00 0.000E+00 0.000E+00 0.000E+00 0.000E+00 0.000E+00     0.061     0.000     0.000
[...]
FRSE   28 000050003    5    0  4.0.93367E-02  3445.525     0.000     0.000     0.000  1685.616  1003.693   149.888   158.770   322.562   319.144    15.957    33.712     0.000     0.000  1011.732  2003.115   499.500   499.501     0.000  1618.406   269.479  2403.749    71.783    26.585    28.867    24.303    24.889    17.431     3.050     6.572     0.000     0.000     0.000     0.000     0.000     0.000     0.000     0.000     0.000     0.000     1.568    18.747   -16.095     0.314     3.201     0.749     0.838     0.000     9.347     1.883    23.067     2.815     2.063     0.014     1.764     5.066     0.040     0.067     0.000     0.000     0.074     2.927     0.000     8.109     5.000     5.676 .00000E+00 .00000E+00 0.226E-01 0.000E+00 0.000E+00 0.000E+00 0.000E+00 0.000E+00 0.000E+00 0.176E+01    16.364  1618.406     0.000
FRSE   29 000050004    5    0  4.0.20520E-02  3445.525     0.000     0.000     0.000  1685.616   917.143    74.429    90.320    12.543    12.693     0.635    33.712     0.000     0.000   798.157  2000.075   893.698   893.698     0.000  1620.301     0.000  2514.654    80.688    26.585    28.867    24.303    25.567    17.431    24.419    37.532     0.000     0.000     0.000     0.000     0.000     0.000     0.000     0.000     0.000     0.000     1.249    11.609    -9.999     0.291     1.981     0.334     0.705     0.000     7.438     1.733    41.711     5.102     4.033     0.038     1.631     0.130     0.000     0.031     0.000     3.662     0.074     6.780     0.000     7.453     5.000     5.217 .00000E+00 .00000E+00 0.561E-01 0.000E+00 0.000E+00 0.000E+00 0.000E+00 0.000E+00 0.000E+00 0.163E+01     0.655  1620.301     0.000
FRSD   30 000050005    5    0  4.0.15390E-02  3445.525     0.000     0.000     0.000  1685.616   998.518   141.873   158.798    73.241    72.826     3.641    33.712     0.000     0.000   989.418  2000.465   825.714   825.715     0.000  1546.915    38.533  2414.920    80.028    26.585    28.867    24.303    24.659    17.431     1.901     3.326     0.000     0.000     0.000     0.000     0.000     0.000     0.000     0.000     0.000     0.000     2.764    18.651   -15.449     0.787     3.187     0.763     0.837     0.000    13.380     2.676    17.645     2.197     1.667     0.055     1.616     1.225     0.002     0.166     0.000     0.000     0.385     6.700     0.000    11.417     4.993     7.992 .00000E+00 .00000E+00 0.529E-01 0.000E+00 0.000E+00 0.000E+00 0.000E+00 0.000E+00 0.000E+00 0.162E+01     3.757  1546.915     0.000
FRSD   31 000050006    5    0  4.0.41040E-03  3445.525     0.000     0.000     0.000  1685.616   938.577    69.789    85.039    10.529    10.727     0.536    33.712     0.000     0.000   784.451  2000.062  1177.732  1177.732     0.000  1318.836     0.000  2497.112    85.428    26.585    28.867    24.303    25.432    17.431     4.784     6.476     0.000     0.000     0.000     0.000     0.000     0.000     0.000     0.000     0.000     0.000     1.707    11.777    -9.879     0.625     2.011     0.284     0.561     0.000     8.235     2.066    32.078     3.993     3.145     0.075     1.371     0.067     0.000     0.123     0.000     2.353     0.385    27.066     0.000     8.808     4.876     6.166 .00000E+00 .00000E+00 0.108E+00 0.000E+00 0.000E+00 0.000E+00 0.000E+00 0.000E+00 0.000E+00 0.137E+01     0.544  1318.836     0.000
FRSD   32 000050007    5    0  4.0.11286E-02  3445.525     0.000     0.000     0.000  1685.616  1020.390   146.316   158.845   191.199   189.324     9.466    33.712     0.000     0.000  1006.703  2001.651  1342.425  1342.425     0.000   891.188   146.772  2390.101    88.455    26.585    28.867    24.303    24.688    17.431     0.998     1.209     0.000     0.000     0.000     0.000     0.000     0.000     0.000     0.000     0.000     0.000     2.679    18.906   -15.732     0.783     3.230     0.497     0.572     0.000    12.957     2.641    11.559     1.434     1.031     0.114     1.261     2.980     0.015     0.328     0.000     0.000     0.385     7.908     0.000    11.268     4.992     7.887 .00000E+00 .00000E+00 0.178E+00 0.000E+00 0.000E+00 0.000E+00 0.000E+00 0.000E+00 0.000E+00 0.126E+01     9.715   891.188     0.000
FRSD   33 000050008    5    0  4.0.71821E-03  3445.525     0.000     0.000     0.000  1685.616  1034.953   149.232   158.872   407.966   404.233    20.212    33.712     0.000     0.000  1017.246  2003.985  1355.408  1355.408     0.000   646.949   351.328  2374.339    88.687    26.585    28.867    24.303    24.718    17.431     1.227     1.288     0.000     0.000     0.000     0.000     0.000     0.000     0.000     0.000     0.000     0.000     2.362    18.932   -15.885     0.749     3.234     0.359     0.463     0.000    11.531     2.494    13.578     1.684     1.204     0.092     0.930     5.533     0.054     0.306     0.000     0.000     0.385    12.751     0.000    10.641     4.978     7.449 .00000E+00 .00000E+00 0.179E+00 0.000E+00 0.000E+00 0.000E+00 0.000E+00 0.000E+00 0.000E+00 0.930E+00    20.653   646.949     0.000
FRSE   34 000060001    6    0  4.0.23598E-02  3445.525     0.000     0.000     0.000  1685.681  1003.560   149.875   158.767   320.919   317.513    15.876    33.714     0.000     0.000  1011.625  2003.099   499.449   499.449     0.000  1620.233   267.937  2403.899    71.781    26.585    28.867    24.303    24.889    17.431     2.596     7.559     0.000     0.000     0.000     0.000     0.000     0.000     0.000     0.000     0.000     0.000     1.575    18.783   -16.119     0.315     3.207     0.742     0.813     0.000     9.376     1.885    21.338     2.604     1.894     0.015     1.772     5.054     0.039     0.074     0.000     0.000     0.074     2.882     0.000     8.115     5.000     5.681 .00000E+00 .00000E+00 0.222E-01 0.000E+00 0.000E+00 0.000E+00 0.000E+00 0.000E+00 0.000E+00 0.177E+01    16.280  1620.233     0.000
FRSD   35 000060002    6    0  4.0.10260E-03  3445.525     0.000     0.000     0.000  1685.681   973.018    77.506    90.393    66.661    66.013     3.301    33.714     0.000     0.000   989.878  2000.458  1267.437  1267.437     0.000  1137.666    31.921  2440.443    86.775    26.585    28.867    24.303    25.509    17.431     2.303     4.125     0.000     0.000     0.000     0.000     0.000     0.000     0.000     0.000     0.000     0.000     1.601    12.190   -10.278     0.596     2.081     0.198     0.393     0.000     7.555     1.922    21.787     2.697     2.051     0.073     1.446     0.843     0.001     0.194     0.000     1.210     0.385    31.980     0.000     8.196     4.753     5.737 .00000E+00 .00000E+00 0.163E+00 0.000E+00 0.000E+00 0.000E+00 0.000E+00 0.000E+00 0.000E+00 0.145E+01     3.419  1137.666     0.000
FRSD   36 000060003    6    0  4.0.71820E-03  3445.525     0.000     0.000     0.000  1685.681  1020.837   146.439   158.844   196.297   194.368     9.718    33.714     0.000     0.000  1006.851  2001.699  1343.012  1343.012     0.000   885.072   151.552  2389.607    88.465    26.585    28.867    24.303    24.689    17.431     0.918     1.180     0.000     0.000     0.000     0.000     0.000     0.000     0.000     0.000     0.000     0.000     2.672    18.925   -15.748     0.782     3.233     0.484     0.558     0.000    12.926     2.638    10.830     1.343     0.962     0.114     1.255     3.048     0.016     0.336     0.000     0.000     0.385     8.015     0.000    11.254     4.991     7.878 .00000E+00 .00000E+00 0.178E+00 0.000E+00 0.000E+00 0.000E+00 0.000E+00 0.000E+00 0.000E+00 0.126E+01     9.972   885.072     0.000
FRSD   37 000060004    6    0  4.0.10260E-03  3445.525     0.000     0.000     0.000  1685.681   971.573    77.199    90.391    61.615    61.038     3.052    33.714     0.000     0.000   989.034  2000.406  1264.335  1264.336     0.000  1147.238    27.273  2442.010    86.722    26.585    28.867    24.303    25.505    17.431     2.375     4.250     0.000     0.000     0.000     0.000     0.000     0.000     0.000     0.000     0.000     0.000     1.612    12.173   -10.260     0.599     2.079     0.202     0.400     0.000     7.619     1.936    22.200     2.749     2.094     0.073     1.446     0.765     0.001     0.191     0.000     1.270     0.385    31.529     0.000     8.254     4.766     5.778 .00000E+00 .00000E+00 0.161E+00 0.000E+00 0.000E+00 0.000E+00 0.000E+00 0.000E+00 0.000E+00 0.145E+01     3.164  1147.238     0.000
FRSD   38 000060005    6    0  4.0.30780E-03  3445.525     0.000     0.000     0.000  1685.681  1020.213   146.292   158.843   189.971   188.106     9.405    33.714     0.000     0.000  1006.660  2001.636  1342.307  1342.308     0.000   892.710   145.589  2390.259    88.454    26.585    28.867    24.303    24.687    17.431     0.836     1.139     0.000     0.000     0.000     0.000     0.000     0.000     0.000     0.000     0.000     0.000     2.690    18.937   -15.750     0.784     3.235     0.481     0.550     0.000    12.986     2.643    10.032     1.244     0.888     0.115     1.267     2.967     0.015     0.344     0.000     0.000     0.385     7.831     0.000    11.277     4.992     7.894 .00000E+00 .00000E+00 0.178E+00 0.000E+00 0.000E+00 0.000E+00 0.000E+00 0.000E+00 0.000E+00 0.127E+01     9.652   892.710     0.000
SWCH   39 000070001    7    0  4.0.30781E-03  3445.525     0.000     0.000     0.000  1685.610  1065.889   143.213   159.615   812.784   804.064    40.203    33.712     0.000     0.000  1048.284  2008.906   603.125   603.126     0.000   962.969   730.867  2337.930    74.128    26.585    28.867    24.303    24.161    17.431     0.046     0.211     0.000     0.000   139.307     0.000     0.000     0.000     0.000     0.000     0.000     0.000    34.741    20.547   -11.969     8.266     3.526   -32.852   -28.527     0.000   151.899    42.857     0.668     0.086     0.043     0.805     7.797    10.976     0.229     0.209     0.000     0.000     0.888    72.893     0.000    39.129     5.507    25.461 .00000E+00 .00000E+00 0.320E-01 0.000E+00 0.000E+00 0.000E+00 0.000E+00 0.000E+00 0.000E+00 0.780E+01    40.968   962.969     0.000
SWCH   40 000070002    7    0  4.0.20521E-03  3445.525     0.000     0.000     0.000  1685.610   989.565    62.834    91.107    49.949    49.308     2.465    33.712     0.000     0.000   988.202  2000.341   917.174   917.174     0.000  1487.847    15.128  2422.685    78.711    26.585    28.867    24.303    24.821    17.431     0.192     0.525     0.000     0.000   150.835     0.000     0.000     0.000     0.000     0.000     0.000     0.000    33.610    13.312    -6.037     8.197     2.288   -31.334   -26.885     0.000   141.282    40.656     2.680     0.346     0.168     2.004    15.306     0.514     0.001     0.245     0.000    15.635     0.888    74.882     0.000    35.708     5.635    23.182 .00000E+00 .00000E+00 0.940E-01 0.000E+00 0.000E+00 0.000E+00 0.000E+00 0.000E+00 0.000E+00 0.153E+02     2.536  1487.847     0.000
SWCH   41 000070003    7    0  4.0.31807E-02  3445.525     0.000     0.000     0.000  1685.610  1055.870   130.890   159.562   199.767   197.791     9.890    33.712     0.000     0.000  1007.694  2001.717  1039.619  1039.619     0.000  1149.659   155.651  2355.178    83.127    26.585    28.867    24.303    24.057    17.431     0.191     0.355     0.000     0.000   138.101     0.000     0.000     0.000     0.000     0.000     0.000     0.000    34.109    19.997   -11.695     8.238     3.431   -32.423   -28.153     0.000   149.640    42.756     2.827     0.366     0.190     3.280     9.742     2.401     0.015     0.368     0.000     0.182     0.888    73.859     0.000    38.894     5.559    25.302 .00000E+00 .00000E+00 0.124E+00 0.000E+00 0.000E+00 0.000E+00 0.000E+00 0.000E+00 0.000E+00 0.974E+01    10.249  1149.659     0.000
SWCH   42 000070004    7    0  4.0.12312E-02  3445.525     0.000     0.000     0.000  1685.610  1008.718    14.059    15.360    15.748    15.735     0.787    33.712     0.000     0.000   832.309  2000.218  2416.492  2416.492     0.000     0.005     0.000  2417.289    90.128    26.585    28.867    24.303    24.661    17.431     0.000     0.000     0.000     0.000   208.978    13.957     0.000     0.000     0.000     0.000     0.000     0.000    31.077     2.841     3.189     4.839     0.538    -6.427    -6.051    96.579   115.235    17.916     0.000     0.000     0.000    24.470     0.000     0.535     0.000     0.176     0.000    48.604     0.888    57.681    34.709    25.333     5.020    16.404 .00000E+00 .00000E+00 0.250E+01 0.000E+00 0.000E+00 0.000E+00 0.000E+00 0.000E+00 0.000E+00 0.000E+00     0.792     0.005     0.000
SWCH   43 000070005    7    0  4.0.16416E-02  3445.525     0.000     0.000     0.000  1685.610   977.148    58.175    91.084    21.775    21.756     1.088    33.712     0.000     0.000   893.356  2000.115   857.651   857.651     0.000  1587.792     0.000  2446.557    77.491    26.585    28.867    24.303    24.750    17.431     0.387     0.669     0.000     0.000   150.176     0.000     0.000     0.000     0.000     0.000     0.000     0.000    33.038    13.015    -5.898     8.089     2.237   -30.925   -26.528     0.000   139.300    40.181     5.213     0.673     0.332     2.589    15.470     0.191     0.000     0.224     0.000    18.564     0.888    75.320     0.000    34.989     5.587    22.703 .00000E+00 .00000E+00 0.594E-01 0.000E+00 0.000E+00 0.000E+00 0.000E+00 0.000E+00 0.000E+00 0.155E+02     1.114  1587.792     0.000
FRSD   44 000070006    7    0  4.0.41041E-03  3445.525     0.000     0.000     0.000  1685.610  1055.485     8.239     3.846     9.043     9.097     0.455    27.254     0.000     0.000   750.000  2000.104  2381.455  2381.455     0.000     0.003     0.000  2381.928    90.379    26.585    28.867    24.303    24.951    17.431     0.000     0.000     0.000     0.000     0.000     0.000     0.000     0.000     0.000     0.000     0.000     0.000     0.017     0.191    -0.173     0.018     0.033    -0.347    -0.326     0.122     0.065     0.032     0.000     0.000     0.000     0.018     0.000     0.001     0.000     0.375     0.000    29.952     0.385   102.335     0.026     0.086     1.075     0.060 .00000E+00 .00000E+00 0.250E+01 0.000E+00 0.000E+00 0.000E+00 0.000E+00 0.000E+00 0.000E+00 0.000E+00     0.469     0.003     0.000
FRSD   45 000070007    7    0  4.0.51301E-03  3445.525     0.000     0.000     0.000  1685.610   949.372    72.525    90.377    18.285    18.726     0.936    33.712     0.000     0.000   863.161  2000.103  1210.925  1210.925     0.000  1265.894     0.000  2477.783    85.906    26.585    28.867    24.303    25.456    17.431     4.309     5.871     0.000     0.000     0.000     0.000     0.000     0.000     0.000     0.000     0.000     0.000     1.696    11.884    -9.985     0.623     2.029     0.270     0.535     0.000     8.156     2.049    30.768     3.827     2.998     0.076     1.392     0.156     0.000     0.134     0.000     2.127     0.385    27.671     0.000     8.738     4.862     6.116 .00000E+00 .00000E+00 0.121E+00 0.000E+00 0.000E+00 0.000E+00 0.000E+00 0.000E+00 0.000E+00 0.139E+01     0.963  1265.894     0.000
FRSE   46 000070008    7    0  4.0.16929E-01  3445.525     0.000     0.000     0.000  1685.610  1000.533   149.398   158.764   276.539   273.562    13.678    33.712     0.000     0.000  1009.368  2002.623   497.665   497.665     0.000  1669.339   226.234  2407.279    71.696    26.585    28.867    24.303    24.884    17.431     3.730     8.349     0.000     0.000     0.000     0.000     0.000     0.000     0.000     0.000     0.000     0.000     1.636    18.693   -16.032     0.317     3.191     0.805     0.910     0.000     9.754     1.906    24.986     3.049     2.259     0.015     1.807     4.537     0.031     0.059     0.000     0.000     0.074     2.201     0.000     8.209     5.000     5.746 .00000E+00 .00000E+00 0.226E-01 0.000E+00 0.000E+00 0.000E+00 0.000E+00 0.000E+00 0.000E+00 0.181E+01    14.040  1669.339     0.000
FRSE   47 000070009    7    0  4.0.48736E-01  3445.525     0.000     0.000     0.000  1685.610   917.153    74.429    90.320    13.038    13.195     0.660    33.712     0.000     0.000   805.086  2000.082   893.693   893.693     0.000  1619.802     0.000  2514.176    80.687    26.585    28.867    24.303    25.567    17.431    30.747    32.405     0.000     0.000     0.000     0.000     0.000     0.000     0.000     0.000     0.000     0.000     1.239    11.583    -9.983     0.289     1.976     0.336     0.709     0.000     7.426     1.732    42.465     5.195     4.126     0.037     1.622     0.135     0.000     0.028     0.000     3.663     0.074     6.821     0.000     7.447     5.000     5.213 .00000E+00 .00000E+00 0.561E-01 0.000E+00 0.000E+00 0.000E+00 0.000E+00 0.000E+00 0.000E+00 0.162E+01     0.681  1619.802     0.000
FRSE   48 000070010    7    0  4.0.10260E-03  3445.525     0.000     0.000     0.000  1685.610  1106.514    10.203     7.178    11.612    11.629     0.581    33.712     0.000     0.000   756.174  2000.120  2326.161  2326.161     0.000     0.009     0.000  2326.765    88.983    26.585    28.867    24.303    25.112    17.431     0.000     0.000     0.000     0.000     0.000     0.000     0.000     0.000     0.000     0.000     0.000     0.000     0.008     0.201    -0.188     0.016     0.034    -0.338    -0.317     0.154     0.041     0.029     0.000     0.000     0.000     0.012     0.000     0.002     0.000     0.366     0.000    15.750     0.074    63.281     0.039     0.066     1.094     0.046 .00000E+00 .00000E+00 0.250E+01 0.000E+00 0.000E+00 0.000E+00 0.000E+00 0.000E+00 0.000E+00 0.000E+00     0.595     0.009     0.000
FRSE   49 000070011    7    0  4.0.27703E-02  3445.525     0.000     0.000     0.000  1685.610  1002.455   148.090   158.782   186.083   183.961     9.198    33.712     0.000     0.000  1006.167  2001.641  1346.882  1346.882     0.000   909.223   140.973  2406.589    88.599    26.585    28.867    24.303    24.873    17.431     5.495     4.311     0.000     0.000     0.000     0.000     0.000     0.000     0.000     0.000     0.000     0.000     2.593    18.586   -15.858     0.326     3.173     0.923     1.071     0.000    12.026     1.968    30.393     3.700     2.795     0.110     1.475     3.915     0.020     0.114     0.000     0.000     0.074     0.189     0.000     8.482     5.000     5.937 .00000E+00 .00000E+00 0.178E+00 0.000E+00 0.000E+00 0.000E+00 0.000E+00 0.000E+00 0.000E+00 0.147E+01     9.511   909.223     0.000
FRSE   50 000070012    7    0  4.0.61561E-03  3445.525     0.000     0.000     0.000  1685.610  1106.516    10.203     7.178    11.612    11.629     0.581    33.712     0.000     0.000   756.175  2000.120  2326.164  2326.164     0.000     0.008     0.000  2326.767    88.983    26.585    28.867    24.303    25.112    17.431     0.000     0.000     0.000     0.000     0.000     0.000     0.000     0.000     0.000     0.000     0.000     0.000     0.008     0.201    -0.188     0.016     0.034    -0.338    -0.317     0.154     0.041     0.029     0.000     0.000     0.000     0.012     0.000     0.002     0.000     0.366     0.000    15.750     0.074    63.281     0.039     0.066     1.094     0.046 .00000E+00 .00000E+00 0.250E+01 0.000E+00 0.000E+00 0.130E+03 0.195E+04 0.000E+00 0.000E+00 0.000E+00     0.595     0.008     0.000
