1
    SWAT Dec 23 2016    VER 2016/Rev 664                                                                 0/ 0/   0      0: 0: 0

    General Input/Output section (file.cio):                                        
    2/7/2020 21:48:54 QSWAT Workflow v1.5.2                                         
                                                                                    


LULC  HRU       GIS  SUB  MGT  MON   AREAkm2  PRECIPmm SNOFALLmm SNOMELTmm     IRRmm     PETmm      ETmm SW_INITmm  SW_ENDmm    PERCmm GW_RCHGmm DA_RCHGmm   REVAPmm  SA_IRRmm  DA_IRRmm   SA_STmm   DA_STmmSURQ_GENmmSURQ_CNTmm   TLOSSmm LATQGENmm    GW_Qmm    WYLDmm   DAILYCN TMP_AVdgC TMP_MXdgC TMP_MNdgCSOL_TMPdgCSOLARMJ/m2  SYLDt/ha  USLEt/haN_APPkg/haP_APPkg/haNAUTOkg/haPAUTOkg/ha NGRZkg/ha PGRZkg/haNCFRTkg/haPCFRTkg/haNRAINkg/ha NFIXkg/ha F-MNkg/ha A-MNkg/ha A-SNkg/ha F-MPkg/haAO-LPkg/ha L-APkg/ha A-SPkg/ha DNITkg/ha  NUPkg/ha  PUPkg/ha ORGNkg/ha ORGPkg/ha SEDPkg/haNSURQkg/haNLATQkg/ha NO3Lkg/haNO3GWkg/ha SOLPkg/ha P_GWkg/ha    W_STRS  TMP_STRS    N_STRS    P_STRS  BIOMt/ha       LAI   YLDt/ha  BACTPct   BACTLPct WTAB CLIm WTAB SOLm     SNOmm CMUPkg/haCMTOTkg/ha   QTILEmm TNO3kg/ha LNO3kg/ha  GW_Q_Dmm LATQCNTmm TVAPkg/ha
SWCH    1 000010001    1    0    1.14364E-02   576.600     0.000     0.000     0.000   117.376    82.869   161.372   164.789    44.292    26.540     1.327     2.348     0.000     0.000  1009.729  2002.368    91.146    91.146     0.000   340.160    19.086   451.005    77.146    26.316    28.503    24.129    24.438    15.425     0.035     0.126     0.000     0.000     0.000     0.000     0.000     0.000     0.000     0.000     0.000     0.000     4.331     1.882    -0.926     1.147     0.323     1.243     1.063     0.000     0.000     0.000     0.547     0.070     0.040     0.071     1.497     0.892     0.002     0.046     0.000     0.000     0.000     0.000     0.000     0.000     0.000     0.000 .00000E+00 .00000E+00 0.812E-05 0.444E+04 0.000E+00 0.000E+00 0.000E+00 0.000E+00 0.000E+00 0.150E+01     0.613   340.160     0.000
FRSE    2 000010002    1    0    1.20521E-03   576.600     0.000     0.000     0.000   117.376    91.412   161.672   165.227   412.676   266.085    13.304     2.348     0.000     0.000  1123.483  2031.484    69.071    62.299     0.000     0.014   218.163   289.518    73.820    26.316    28.503    24.129    24.887    15.425     0.000     0.087     0.000     0.000     0.000     0.000     0.000     0.000     0.000     0.000     0.000     0.000     0.016     1.706    -1.346     0.004     0.291    -0.172    -0.082     0.000     0.000     0.000     0.000     0.000     0.000     0.001     0.000     2.992     0.105     0.018     0.000     0.000     0.000     0.000     0.000     0.000     0.000     0.000 .00000E+00 .00000E+00 0.106E-04 0.444E+04 0.000E+00 0.000E+00 0.000E+00 0.000E+00 0.000E+00 0.160E-04     9.042     0.014     0.000
FRSE    3 000010003    1    0    1.10260E-03   576.600     0.000     0.000     0.000   117.376    91.400   161.615   165.109   406.541   261.990    13.100     2.348     0.000     0.000  1121.088  2030.990    68.997    68.836     0.000     4.939   214.748   297.422    73.811    26.316    28.503    24.129    24.887    15.425     0.064     0.272     0.000     0.000     0.000     0.000     0.000     0.000     0.000     0.000     0.000     0.000     0.016     1.703    -1.343     0.004     0.291    -0.164    -0.077     0.000     0.000     0.000     0.947     0.116     0.077     0.001     0.004     2.978     0.103     0.019     0.000     0.000     0.000     0.000     0.000     0.000     0.000     0.000 .00000E+00 .00000E+00 0.895E-05 0.444E+04 0.000E+00 0.000E+00 0.000E+00 0.000E+00 0.000E+00 0.446E-02     8.899     4.939     0.000
FRSE    4 000010004    1    0    1.18058E-01   576.600     0.000     0.000     0.000   117.376    89.863   160.752   164.689    44.746    26.303     1.315     2.348     0.000     0.000  1007.754  2002.833    68.367    68.367     0.000   352.500    20.024   441.672    73.676    26.316    28.503    24.129    24.875    15.425     2.468     9.437     0.000     0.000     0.000     0.000     0.000     0.000     0.000     0.000     0.000     0.000     0.036     1.670    -1.283     0.004     0.285     0.217     0.279     0.000     0.000     0.000    12.623     1.538     1.185     0.002     0.472     1.389     0.004     0.007     0.000     0.000     0.000     0.000     0.000     0.000     0.000     0.000 .00000E+00 .00000E+00 0.853E-05 0.444E+04 0.000E+00 0.000E+00 0.000E+00 0.000E+00 0.000E+00 0.472E+00     0.781   352.500     0.000
FRSE    5 000010005    1    0    1.10096E+00   576.600     0.000     0.000     0.000   117.376    87.360    91.225    96.088     5.921     2.786     0.139     2.348     0.000     0.000   871.525  2000.231   161.727   161.727     0.000   301.621     0.000   463.403    84.602    26.316    28.503    24.129    25.505    15.425    25.882    18.111     0.000     0.000     0.000     0.000     0.000     0.000     0.000     0.000     0.000     0.000     0.006     1.090    -0.814     0.001     0.186     0.185     0.294     0.000     0.000     0.000    32.149     3.925     3.174     0.004     0.421     0.114     0.000     0.007     0.000     0.000     0.000     0.000     0.000     0.000     0.000     0.000 .00000E+00 .00000E+00 0.237E-04 0.404E+04 0.000E+00 0.000E+00 0.000E+00 0.000E+00 0.000E+00 0.421E+00     0.055   301.621     0.000
FRSD    6 000010006    1    0    1.12312E-02   576.600     0.000     0.000     0.000   117.376    83.824   161.501   164.782    73.873    44.914     2.246     2.348     0.000     0.000  1019.101  2004.479   138.369   138.369     0.000   266.020    33.869   439.469    82.517    26.316    28.503    24.129    24.462    15.425     0.010     0.019     0.000     0.000     0.000     0.000     0.000     0.000     0.000     0.000     0.000     0.000     0.509     1.700    -1.264     0.363     0.291     0.561     0.535     0.000     0.000     0.000     0.120     0.015     0.011     0.021     0.399     0.916     0.003     0.051     0.000     0.000     0.000     0.000     0.000     0.000     0.000     0.000 .00000E+00 .00000E+00 0.160E-04 0.444E+04 0.000E+00 0.000E+00 0.000E+00 0.000E+00 0.000E+00 0.399E+00     1.212   266.020     0.000
FRSE    7 000020001    2    0    1.76952E-02   576.600     0.000     0.000     0.000   117.394    90.217   160.970   164.690    72.160    43.753     2.188     2.348     0.000     0.000  1014.472  2004.879    68.429    68.429     0.000   326.613    34.287   430.696    73.711    26.316    28.503    24.129    24.876    15.425     1.432     2.799     0.000     0.000     0.000     0.000     0.000     0.000     0.000     0.000     0.000     0.000     0.038     1.676    -1.297     0.004     0.286     0.176     0.222     0.000     0.000     0.000    10.583     1.291     0.973     0.002     0.427     1.759     0.009     0.009     0.000     0.000     0.000     0.000     0.000     0.000     0.000     0.000 .00000E+00 .00000E+00 0.853E-05 0.444E+04 0.000E+00 0.000E+00 0.000E+00 0.000E+00 0.000E+00 0.427E+00     1.367   326.613     0.000
FRSE    8 000020002    2    0    1.10722E+00   576.600     0.000     0.000     0.000   117.394    87.364    91.224    96.090     6.131     2.886     0.144     2.348     0.000     0.000   875.731  2000.240   161.722   161.722     0.000   301.418     0.000   463.197    84.602    26.316    28.503    24.129    25.505    15.425    23.800    16.540     0.000     0.000     0.000     0.000     0.000     0.000     0.000     0.000     0.000     0.000     0.006     1.090    -0.814     0.001     0.186     0.184     0.295     0.000     0.000     0.000    31.440     3.839     3.102     0.005     0.420     0.118     0.000     0.007     0.000     0.000     0.000     0.000     0.000     0.000     0.000     0.000 .00000E+00 .00000E+00 0.235E-04 0.404E+04 0.000E+00 0.000E+00 0.000E+00 0.000E+00 0.000E+00 0.420E+00     0.057   301.418     0.000
FRSE    9 000020003    2    0    1.10261E-03   576.600     0.000     0.000     0.000   117.394    91.006   161.261   164.690   180.711   114.517     5.726     2.348     0.000     0.000  1042.173  2013.184   169.669   169.669     0.000   120.845    91.660   385.921    85.258    26.316    28.503    24.129    24.879    15.425     1.231     2.323     0.000     0.000     0.000     0.000     0.000     0.000     0.000     0.000     0.000     0.000     0.022     1.675    -1.316     0.004     0.286     0.064     0.123     0.000     0.000     0.000    11.370     1.389     1.020     0.004     0.169     2.822     0.041     0.026     0.000     0.000     0.000     0.000     0.000     0.000     0.000     0.000 .00000E+00 .00000E+00 0.378E-04 0.444E+04 0.000E+00 0.000E+00 0.000E+00 0.000E+00 0.000E+00 0.169E+00     3.747   120.845     0.000
SWCH   10 000030001    3    0    1.49249E-02   576.600     0.000     0.000     0.000   117.345    82.802   161.324   164.786    39.766    23.409     1.170     2.347     0.000     0.000  1008.695  2002.025    91.130    91.130     0.000   344.415    15.960   452.021    77.139    26.316    28.503    24.129    24.438    15.425     0.046     0.089     0.000     0.000     0.000     0.000     0.000     0.000     0.000     0.000     0.000     0.000     4.321     1.882    -0.922     1.146     0.323     1.246     1.064     0.000     0.000     0.000     0.702     0.091     0.052     0.072     1.511     0.794     0.001     0.046     0.000     0.000     0.000     0.000     0.000     0.000     0.000     0.000 .00000E+00 .00000E+00 0.821E-05 0.444E+04 0.000E+00 0.000E+00 0.000E+00 0.000E+00 0.000E+00 0.151E+01     0.516   344.415     0.000
SWCH   11 000030002    3    0    1.12312E-02   576.600     0.000     0.000     0.000   117.345    80.930    91.945    96.187     9.418     3.275     0.164     2.347     0.000     0.000   879.622  2000.192   180.631   180.631     0.000   287.582     0.000   468.246    86.092    26.316    28.503    24.129    25.251    15.425     0.104     0.127     0.000     0.000     0.000     0.000     0.000     0.000     0.000     0.000     0.000     0.000     4.289     1.344    -0.465     1.192     0.231     1.207     0.984     0.000     0.000     0.000     1.519     0.196     0.108     0.185     1.585     0.085     0.000     0.075     0.000     0.000     0.000     0.000     0.000     0.000     0.000     0.000 .00000E+00 .00000E+00 0.813E-05 0.404E+04 0.000E+00 0.000E+00 0.000E+00 0.000E+00 0.000E+00 0.158E+01     0.034   287.582     0.000
SWCH   12 000030003    3    0    1.54379E-02   576.600     0.000     0.000     0.000   117.345    83.271   161.564   164.788    71.754    45.495     2.275     2.347     0.000     0.000  1019.765  2004.398   187.073   187.073     0.000   222.020    35.387   445.661    86.589    26.316    28.503    24.129    24.436    15.425     0.038     0.046     0.000     0.000     0.000     0.000     0.000     0.000     0.000     0.000     0.000     0.000     4.390     1.876    -0.941     1.164     0.322     1.204     1.036     0.000     0.000     0.000     0.621     0.080     0.045     0.160     1.179     1.585     0.006     0.092     0.000     0.000     0.000     0.000     0.000     0.000     0.000     0.000 .00000E+00 .00000E+00 0.235E-04 0.444E+04 0.000E+00 0.000E+00 0.000E+00 0.000E+00 0.000E+00 0.118E+01     1.181   222.020     0.000
SWCH   13 000030004    3    0    1.12312E-02   576.600     0.000     0.000     0.000   117.345    93.950    20.571    25.609     1.987     1.635     0.082     2.347     0.000     0.000   906.636  2000.246   463.849   463.849     0.000     0.000     0.000   463.925    98.055    26.316    28.503    24.129    25.204    15.425     0.000     0.000     0.000     0.000     0.000     0.000     0.000     0.000     0.000     0.000     0.000     0.000     4.512     0.312     0.272     0.967     0.059     0.830     0.811     3.772     0.000     0.000     0.000     0.000     0.000     0.857     0.000     0.045     0.000     0.062     0.000     0.000     0.000     0.000     0.000     0.000     0.000     0.000 .00000E+00 .00000E+00 0.250E+01 0.404E+04 0.000E+00 0.000E+00 0.000E+00 0.000E+00 0.000E+00 0.000E+00     0.075     0.000     0.000
SWCH   14 000030005    3    0    1.33859E-02   576.600     0.000     0.000     0.000   117.345    81.182    92.803    96.192    21.560    11.715     0.586     2.347     0.000     0.000  1002.275  2000.906   182.426   182.426     0.000   276.166     0.960   459.768    86.234    26.316    28.503    24.129    25.250    15.425     0.074     0.040     0.000     0.000     0.000     0.000     0.000     0.000     0.000     0.000     0.000     0.000     4.470     1.343    -0.486     1.208     0.231     1.198     0.975     0.000     0.000     0.000     1.114     0.144     0.078     0.175     1.573     0.348     0.000     0.076     0.000     0.000     0.000     0.000     0.000     0.000     0.000     0.000 .00000E+00 .00000E+00 0.864E-05 0.404E+04 0.000E+00 0.000E+00 0.000E+00 0.000E+00 0.000E+00 0.157E+01     0.216   276.166     0.000
FRSD   15 000030006    3    0    1.25651E-02   576.600     0.000     0.000     0.000   117.345    83.397   161.381   164.780    44.523    25.915     1.296     2.347     0.000     0.000  1008.380  2002.391   138.278   138.278     0.000   294.098    18.457   451.458    82.504    26.316    28.503    24.129    24.458    15.425     0.020     0.036     0.000     0.000     0.000     0.000     0.000     0.000     0.000     0.000     0.000     0.000     0.517     1.695    -1.245     0.371     0.290     0.607     0.582     0.000     0.000     0.000     0.211     0.027     0.020     0.024     0.436     0.561     0.001     0.048     0.000     0.000     0.000     0.000     0.000     0.000     0.000     0.000 .00000E+00 .00000E+00 0.148E-04 0.444E+04 0.000E+00 0.000E+00 0.000E+00 0.000E+00 0.000E+00 0.436E+00     0.627   294.098     0.000
FRSD   16 000030007    3    0    1.41040E-03   576.600     0.000     0.000     0.000   117.345   101.440    33.231    33.885     3.449     1.660     0.083     2.347     0.000     0.000   823.772  2000.186   443.594   443.594     0.000     0.000     0.000   443.645    97.088    26.316    28.503    24.129    25.211    15.425     0.000     0.000     0.000     0.000     0.000     0.000     0.000     0.000     0.000     0.000     0.000     0.000     0.004     0.029    -0.014     0.004     0.005    -0.046    -0.036     0.030     0.000     0.000     0.000     0.000     0.000     0.004     0.000     0.001     0.000     0.072     0.000     0.000     0.000     0.000     0.000     0.000     0.000     0.000 .00000E+00 .00000E+00 0.435E+00 0.404E+04 0.000E+00 0.000E+00 0.000E+00 0.000E+00 0.000E+00 0.000E+00     0.050     0.000     0.000
FRSD   17 000030008    3    0    1.30781E-02   576.600     0.000     0.000     0.000   117.345    83.471    92.394    96.155    14.440     7.426     0.371     2.347     0.000     0.000   974.276  2000.584   228.972   228.972     0.000   234.776     0.000   463.886    89.315    26.316    28.503    24.129    25.322    15.425     0.068     0.049     0.000     0.000     0.000     0.000     0.000     0.000     0.000     0.000     0.000     0.000     0.346     1.132    -0.805     0.297     0.194     0.467     0.500     0.000     0.000     0.000     0.560     0.072     0.056     0.036     0.389     0.121     0.000     0.052     0.000     0.000     0.000     0.000     0.000     0.000     0.000     0.000 .00000E+00 .00000E+00 0.470E-04 0.404E+04 0.000E+00 0.000E+00 0.000E+00 0.000E+00 0.000E+00 0.389E+00     0.138   234.776     0.000
FRSE   18 000030009    3    0    1.36527E-01   576.600     0.000     0.000     0.000   117.345    90.277   160.998   164.686    79.105    48.204     2.410     2.347     0.000     0.000  1016.528  2005.401    68.443    68.443     0.000   320.014    37.920   427.893    73.715    26.316    28.503    24.129    24.876    15.425     1.562     3.156     0.000     0.000     0.000     0.000     0.000     0.000     0.000     0.000     0.000     0.000     0.034     1.674    -1.298     0.004     0.286     0.170     0.222     0.000     0.000     0.000    10.865     1.326     1.002     0.002     0.415     1.841     0.010     0.009     0.000     0.000     0.000     0.000     0.000     0.000     0.000     0.000 .00000E+00 .00000E+00 0.879E-05 0.444E+04 0.000E+00 0.000E+00 0.000E+00 0.000E+00 0.000E+00 0.415E+00     1.517   320.014     0.000
FRSE   19 000030010    3    0    1.18150E+00   576.600     0.000     0.000     0.000   117.345    87.353    91.228    96.086     6.859     3.227     0.161     2.347     0.000     0.000   889.708  2000.267   161.734   161.734     0.000   300.742     0.000   462.539    84.603    26.316    28.503    24.129    25.505    15.425    17.453    11.391     0.000     0.000     0.000     0.000     0.000     0.000     0.000     0.000     0.000     0.000     0.008     1.093    -0.815     0.002     0.187     0.183     0.297     0.000     0.000     0.000    28.954     3.536     2.849     0.005     0.418     0.132     0.000     0.008     0.000     0.000     0.000     0.000     0.000     0.000     0.000     0.000 .00000E+00 .00000E+00 0.239E-04 0.404E+04 0.000E+00 0.000E+00 0.000E+00 0.000E+00 0.000E+00 0.418E+00     0.064   300.742     0.000
FRSE   20 000030011    3    0    1.10259E-03   576.600     0.000     0.000     0.000   117.345   104.362    32.345    31.811     3.349     1.725     0.086     2.347     0.000     0.000   846.236  2000.203   443.810   443.810     0.000     0.001     0.000   443.868    97.389    26.316    28.503    24.129    25.330    15.425     0.000     0.000     0.000     0.000     0.000     0.000     0.000     0.000     0.000     0.000     0.000     0.000     0.000     0.028    -0.016     0.000     0.005    -0.050    -0.040     0.026     0.000     0.000     0.000     0.000     0.000     0.002     0.000     0.001     0.000     0.072     0.000     0.000     0.000     0.000     0.000     0.000     0.000     0.000 .00000E+00 .00000E+00 0.416E+00 0.404E+04 0.000E+00 0.000E+00 0.000E+00 0.000E+00 0.000E+00 0.000E+00     0.058     0.001     0.000
FRSE   21 000030012    3    0    1.45145E-02   576.600     0.000     0.000     0.000   117.345    90.485   161.070   164.687    58.713    34.779     1.739     2.347     0.000     0.000  1010.587  2003.693   233.568   233.568     0.000   180.370    26.191   441.143    89.600    26.316    28.503    24.129    24.876    15.425     2.917     1.579     0.000     0.000     0.000     0.000     0.000     0.000     0.000     0.000     0.000     0.000     0.036     1.668    -1.285     0.004     0.285     0.208     0.273     0.000     0.000     0.000    18.344     2.234     1.716     0.010     0.367     1.950     0.007     0.024     0.000     0.000     0.000     0.000     0.000     0.000     0.000     0.000 .00000E+00 .00000E+00 0.132E-03 0.444E+04 0.000E+00 0.000E+00 0.000E+00 0.000E+00 0.000E+00 0.367E+00     1.014   180.370     0.000
FRSE   22 000030013    3    0    1.61561E-03   576.600     0.000     0.000     0.000   117.345   104.362    32.345    31.811     3.349     1.725     0.086     2.347     0.000     0.000   846.237  2000.203   443.811   443.811     0.000     0.001     0.000   443.869    97.389    26.316    28.503    24.129    25.330    15.425     0.000     0.000     0.000     0.000     0.000     0.000     0.000     0.000     0.000     0.000     0.000     0.000     0.000     0.028    -0.016     0.000     0.005    -0.050    -0.040     0.026     0.000     0.000     0.000     0.000     0.000     0.002     0.000     0.001     0.000     0.072     0.000     0.000     0.000     0.000     0.000     0.000     0.000     0.000 .00000E+00 .00000E+00 0.416E+00 0.404E+04 0.000E+00 0.000E+00 0.000E+00 0.000E+00 0.000E+00 0.000E+00     0.058     0.001     0.000
FRSE   23 000030014    3    0    1.24625E-02   576.600     0.000     0.000     0.000   117.345    88.496    92.210    96.086    22.562    12.464     0.623     2.347     0.000     0.000  1003.689  2001.252   228.599   228.599     0.000   221.623     6.022   456.578    89.292    26.316    28.503    24.129    25.509    15.425     5.188     5.487     0.000     0.000     0.000     0.000     0.000     0.000     0.000     0.000     0.000     0.000     0.014     1.100    -0.839     0.003     0.188     0.147     0.266     0.000     0.000     0.000    21.834     2.668     2.111     0.007     0.419     0.748     0.001     0.015     0.000     0.000     0.000     0.000     0.000     0.000     0.000     0.000 .00000E+00 .00000E+00 0.887E-04 0.404E+04 0.000E+00 0.341E+04 0.121E+06 0.000E+00 0.000E+00 0.419E+00     0.334   221.623     0.000
SWCH    1 000010001    1    0    2.14364E-02   144.700     0.000     0.000     0.000   106.851    74.129   148.426   109.380    12.341    26.452     1.323     2.137     0.000     0.000  1008.393  2002.922    25.260    25.260     0.000    99.807    24.327   150.163    75.188    26.895    29.579    24.211    24.608    16.480     0.021     0.060     0.000     0.000   112.817     0.000     0.000     0.000     0.000     0.000     0.000     0.000     3.021     1.605    -0.838     0.801     0.275    -0.600     0.490     0.000    38.356     3.364     0.248     0.032     0.018     0.006     0.334     0.292     0.004     0.012     0.000     0.000     0.092     3.024     0.000     2.526     5.003     0.003 .00000E+00 .00000E+00 0.000E+00 0.444E+04 0.000E+00 0.000E+00 0.000E+00 0.000E+00 0.000E+00 0.334E+00     0.769    99.807     0.000
FRSE    2 000010002    1    0    2.20521E-03   144.700     0.000     0.000     0.000   106.851    69.639   148.393   115.105   105.188   243.853    12.193     2.137     0.000     0.000  1116.141  2034.229    19.991    26.764     0.000     0.010   236.866   273.088    71.589    26.895    29.579    24.211    25.000    16.480     0.000     0.038     0.000     0.000     0.000     0.000     0.000     0.000     0.000     0.000     0.000     0.000     0.011     1.461    -1.219     0.002     0.250    -0.511    -0.222     0.000     2.459     0.728     0.000     0.000     0.000     0.000     0.000     0.568     0.103     0.008     0.000     0.000     0.034     7.599     0.000     1.426     4.881     0.012 .00000E+00 .00000E+00 0.000E+00 0.444E+04 0.000E+00 0.000E+00 0.000E+00 0.000E+00 0.000E+00 0.206E-05     9.448     0.010     0.000
FRSE    3 000010003    1    0    2.10260E-03   144.700     0.000     0.000     0.000   106.851    69.675   148.363   115.065   103.523   240.156    12.008     2.137     0.000     0.000  1113.852  2033.698    19.985    20.145     0.000     3.134   233.245   265.825    71.584    26.895    29.579    24.211    25.000    16.480     0.039     0.144     0.000     0.000     0.000     0.000     0.000     0.000     0.000     0.000     0.000     0.000     0.011     1.459    -1.217     0.002     0.249    -0.510    -0.215     0.000     2.473     0.732     0.459     0.056     0.037     0.000     0.002     0.565     0.101     0.005     0.000     0.000     0.034     7.539     0.000     1.433     4.889     0.012 .00000E+00 .00000E+00 0.000E+00 0.444E+04 0.000E+00 0.000E+00 0.000E+00 0.000E+00 0.000E+00 0.217E-02     9.300     3.134     0.000
FRSE    4 000010004    1    0    2.18058E-01   144.700     0.000     0.000     0.000   106.851    70.299   148.121   114.404    12.784    26.897     1.345     2.137     0.000     0.000  1006.447  2003.293    19.965    19.966     0.000   103.982    24.722   149.554    71.542    26.895    29.579    24.211    24.968    16.480     1.426     4.394     0.000     0.000     0.000     0.000     0.000     0.000     0.000     0.000     0.000     0.000     0.021     1.434    -1.162     0.002     0.245    -0.557     0.029     0.000     6.884     1.239     4.788     0.583     0.449     0.000     0.120     0.374     0.006     0.002     0.000     0.000     0.034     0.000     0.000     2.439     5.000     0.020 .00000E+00 .00000E+00 0.000E+00 0.444E+04 0.000E+00 0.000E+00 0.000E+00 0.000E+00 0.000E+00 0.120E+00     0.885   103.982     0.000
FRSE    5 000010005    1    0    2.10096E+00   144.700     0.000     0.000     0.000   106.851    68.547    80.228    47.547     2.218     3.688     0.184     2.137     0.000     0.000   872.891  2000.333    42.252    42.252     0.000    90.258     0.000   132.592    82.147    26.895    29.579    24.211    25.636    16.480    13.066    13.377     0.000     0.000     0.000     0.000     0.000     0.000     0.000     0.000     0.000     0.000     0.002     0.886    -0.737     0.001     0.151    -0.595     0.039     0.000     5.795     1.218     6.951     0.849     0.690     0.000     0.125     0.057     0.000     0.001     0.000     0.000     0.034     0.306     0.000     2.392     5.000     0.019 .00000E+00 .00000E+00 0.124E-05 0.404E+04 0.000E+00 0.000E+00 0.000E+00 0.000E+00 0.000E+00 0.125E+00     0.082    90.258     0.000
FRSD    6 000010006    1    0    2.12312E-02   144.700     0.000     0.000     0.000   106.851    59.070   150.933   124.721    20.082    43.767     2.188     2.137     0.000     0.000  1017.613  2005.258    36.047    36.047     0.000    78.354    40.930   156.740    81.295    26.895    29.579    24.211    24.622    16.480     0.006     0.019     0.000     0.000     0.000     0.000     0.000     0.000     0.000     0.000     0.000     0.000     0.341     1.473    -1.146     0.243     0.252    -0.230     0.183     0.000     5.264     1.107     0.058     0.007     0.005     0.002     0.089     0.273     0.006     0.012     0.000     0.000     0.087     0.967     0.000     1.835     3.534     0.003 .00000E+00 .00000E+00 0.000E+00 0.444E+04 0.000E+00 0.000E+00 0.000E+00 0.000E+00 0.000E+00 0.888E-01     1.409    78.354     0.000
FRSE    7 000020001    2    0    2.76952E-02   144.700     0.000     0.000     0.000   106.892    70.327   148.116   114.382    19.784    43.070     2.154     2.138     0.000     0.000  1012.893  2005.531    19.965    19.965     0.000    96.046    40.357   157.870    71.541    26.895    29.579    24.211    24.968    16.480     0.827     2.173     0.000     0.000     0.000     0.000     0.000     0.000     0.000     0.000     0.000     0.000     0.023     1.438    -1.175     0.003     0.246    -0.581    -0.006     0.000     6.884     1.239     4.106     0.501     0.377     0.000     0.103     0.436     0.012     0.002     0.000     0.000     0.034     0.000     0.000     2.439     5.000     0.020 .00000E+00 .00000E+00 0.000E+00 0.444E+04 0.000E+00 0.000E+00 0.000E+00 0.000E+00 0.000E+00 0.103E+00     1.501    96.046     0.000
FRSE    8 000020002    2    0    2.10722E+00   144.700     0.000     0.000     0.000   106.892    68.574    80.221    47.525     2.296     3.819     0.191     2.138     0.000     0.000   877.221  2000.346    42.251    42.251     0.000    90.165     0.000   132.501    82.146    26.895    29.579    24.211    25.636    16.480    12.014    12.217     0.000     0.000     0.000     0.000     0.000     0.000     0.000     0.000     0.000     0.000     0.003     0.887    -0.737     0.001     0.151    -0.596     0.039     0.000     5.797     1.218     7.007     0.856     0.695     0.000     0.124     0.059     0.000     0.001     0.000     0.000     0.034     0.306     0.000     2.392     5.000     0.019 .00000E+00 .00000E+00 0.123E-05 0.404E+04 0.000E+00 0.000E+00 0.000E+00 0.000E+00 0.000E+00 0.124E+00     0.085    90.165     0.000
FRSE    9 000020003    2    0    2.10261E-03   144.700     0.000     0.000     0.000   106.892    70.325   148.117   114.386    48.309   107.629     5.381     2.138     0.000     0.000  1039.167  2014.570    43.102    43.102     0.000    42.928   103.116   193.141    83.928    26.895    29.579    24.211    24.971    16.480     0.609     0.405     0.000     0.000     0.000     0.000     0.000     0.000     0.000     0.000     0.000     0.000     0.014     1.436    -1.192     0.003     0.245    -0.606    -0.078     0.000     4.405     1.123     4.007     0.489     0.358     0.000     0.047     0.617     0.047     0.006     0.000     0.000     0.034     1.619     0.000     2.196     5.000     0.018 .00000E+00 .00000E+00 0.198E-05 0.444E+04 0.000E+00 0.000E+00 0.000E+00 0.000E+00 0.000E+00 0.466E-01     3.995    42.928     0.000
SWCH   10 000030001    3    0    2.49249E-02   144.700     0.000     0.000     0.000   106.780    74.064   148.446   109.436    11.185    23.696     1.185     2.136     0.000     0.000  1007.585  2002.544    25.261    25.261     0.000   101.121    21.485   148.532    75.191    26.895    29.579    24.211    24.608    16.480     0.028     0.059     0.000     0.000   112.564     0.000     0.000     0.000     0.000     0.000     0.000     0.000     3.011     1.605    -0.835     0.799     0.275    -0.598     0.493     0.000    38.367     3.362     0.317     0.041     0.024     0.007     0.338     0.264     0.003     0.012     0.000     0.000     0.092     3.018     0.000     2.527     5.007     0.003 .00000E+00 .00000E+00 0.000E+00 0.444E+04 0.000E+00 0.000E+00 0.000E+00 0.000E+00 0.000E+00 0.338E+00     0.665   101.121     0.000
SWCH   11 000030002    3    0    2.12312E-02   144.700     0.000     0.000     0.000   106.780    72.318    80.602    42.561     3.419     5.455     0.273     2.136     0.000     0.000   882.668  2000.378    46.165    46.165     0.000    85.812     0.000   132.064    83.764    26.895    29.579    24.211    25.391    16.480     0.057     0.030     0.000     0.000   109.379     0.000     0.000     0.000     0.000     0.000     0.000     0.000     2.965     1.085    -0.422     0.825     0.186    -0.632     0.497     0.000    38.964     3.396     0.601     0.077     0.043     0.016     0.364     0.059     0.000     0.017     0.000     0.000     0.092     2.996     0.000     2.566     5.021     0.003 .00000E+00 .00000E+00 0.000E+00 0.404E+04 0.000E+00 0.000E+00 0.000E+00 0.000E+00 0.000E+00 0.364E+00     0.087    85.812     0.000
SWCH   12 000030003    3    0    2.54379E-02   144.700     0.000     0.000     0.000   106.780    74.109   148.435   109.376    19.978    43.402     2.170     2.136     0.000     0.000  1017.731  2005.182    46.951    46.951     0.000    66.305    41.130   155.773    85.371    26.895    29.579    24.211    24.603    16.480     0.020     0.017     0.000     0.000   113.594     0.000     0.000     0.000     0.000     0.000     0.000     0.000     3.054     1.599    -0.852     0.811     0.274    -0.676     0.460     0.000    39.278     3.442     0.240     0.031     0.018     0.014     0.278     0.517     0.011     0.021     0.000     0.000     0.092     2.815     0.000     2.586     5.075     0.003 .00000E+00 .00000E+00 0.123E-05 0.444E+04 0.000E+00 0.000E+00 0.000E+00 0.000E+00 0.000E+00 0.278E+00     1.387    66.305     0.000
SWCH   13 000030004    3    0    2.12312E-02   144.700     0.000     0.000     0.000   106.780    49.667    14.166     0.000     1.202     1.674     0.084     2.136     0.000     0.000   906.091  2000.258   119.438   119.439     0.000     0.000     0.000   119.511    84.396    26.895    29.579    24.211    25.007    16.480     0.000     0.000     0.000     0.000   102.597     0.000     0.000     0.000     0.000     0.000     0.000     0.000     3.360     0.204     0.249     0.722     0.039     0.172     0.314    50.491    18.689     0.768     0.000     0.000     0.000     0.115     0.000     0.110     0.000     0.014     0.000     8.838     0.092     0.988     0.000     0.536     2.084     0.001 .00000E+00 .00000E+00 0.245E+01 0.404E+04 0.000E+00 0.000E+00 0.000E+00 0.000E+00 0.000E+00 0.000E+00     0.072     0.000     0.000
SWCH   14 000030005    3    0    2.33859E-02   144.700     0.000     0.000     0.000   106.780    72.134    80.643    42.688     6.481    12.778     0.639     2.136     0.000     0.000  1003.771  2001.232    46.170    46.170     0.000    82.426     8.507   137.416    83.774    26.895    29.579    24.211    25.382    16.480     0.039     0.035     0.000     0.000   113.201     0.000     0.000     0.000     0.000     0.000     0.000     0.000     3.087     1.080    -0.440     0.835     0.185    -0.617     0.491     0.000    39.113     3.385     0.428     0.055     0.030     0.014     0.355     0.161     0.001     0.017     0.000     0.000     0.092     3.015     0.000     2.576     4.965     0.003 .00000E+00 .00000E+00 0.000E+00 0.404E+04 0.000E+00 0.000E+00 0.000E+00 0.000E+00 0.000E+00 0.355E+00     0.313    82.426     0.000
FRSD   15 000030006    3    0    2.25651E-02   144.700     0.000     0.000     0.000   106.780    59.042   150.943   124.730    12.557    26.398     1.320     2.136     0.000     0.000  1007.253  2002.936    36.048    36.048     0.000    86.864    24.069   147.756    81.296    26.895    29.579    24.211    24.619    16.480     0.012     0.009     0.000     0.000     0.000     0.000     0.000     0.000     0.000     0.000     0.000     0.000     0.347     1.470    -1.128     0.249     0.251    -0.203     0.220     0.000     5.664     1.131     0.095     0.012     0.009     0.002     0.098     0.182     0.002     0.011     0.000     0.000     0.087     0.649     0.000     1.880     3.567     0.003 .00000E+00 .00000E+00 0.000E+00 0.444E+04 0.000E+00 0.000E+00 0.000E+00 0.000E+00 0.000E+00 0.976E-01     0.775    86.864     0.000
FRSD   16 000030007    3    0    2.41040E-03   144.700     0.000     0.000     0.000   106.780    54.476    17.248     0.000     1.480     2.244     0.112     2.136     0.000     0.000   823.768  2000.237   122.626   122.626     0.000     0.000     0.000   122.688    91.674    26.895    29.579    24.211    25.524    16.480     0.000     0.000     0.000     0.000     0.000     0.000     0.000     0.000     0.000     0.000     0.000     0.000     0.003     0.020    -0.013     0.003     0.003    -0.063    -0.048     0.008     0.022     0.058     0.000     0.000     0.000     0.000     0.000     0.000     0.000     0.019     0.000     6.941     0.087    21.038     0.000     0.059     0.890     0.000 .00000E+00 .00000E+00 0.225E+01 0.404E+04 0.000E+00 0.000E+00 0.000E+00 0.000E+00 0.000E+00 0.000E+00     0.061     0.000     0.000
FRSD   17 000030008    3    0    2.30781E-02   144.700     0.000     0.000     0.000   106.780    56.382    83.261    59.031     4.839     8.805     0.440     2.136     0.000     0.000   980.505  2000.818    56.657    56.657     0.000    71.580     0.000   128.442    87.984    26.895    29.579    24.211    25.468    16.480     0.042     0.045     0.000     0.000     0.000     0.000     0.000     0.000     0.000     0.000     0.000     0.000     0.232     0.942    -0.730     0.199     0.161    -0.178     0.200     0.000     3.429     0.862     0.256     0.033     0.026     0.003     0.096     0.062     0.000     0.011     0.000     0.000     0.087     4.247     0.000     1.406     3.163     0.002 .00000E+00 .00000E+00 0.257E-05 0.404E+04 0.000E+00 0.000E+00 0.000E+00 0.000E+00 0.000E+00 0.959E-01     0.206    71.580     0.000
FRSE   18 000030009    3    0    2.36527E-01   144.700     0.000     0.000     0.000   106.780    70.251   148.135   114.442    21.554    47.173     2.359     2.136     0.000     0.000  1014.879  2006.102    19.966    19.966     0.000    94.052    44.328   160.005    71.544    26.895    29.579    24.211    24.968    16.480     0.901     0.204     0.000     0.000     0.000     0.000     0.000     0.000     0.000     0.000     0.000     0.000     0.021     1.436    -1.176     0.002     0.245    -0.585    -0.009     0.000     6.594     1.234     4.196     0.512     0.386     0.000     0.099     0.449     0.013     0.002     0.000     0.000     0.034     0.089     0.000     2.426     5.000     0.020 .00000E+00 .00000E+00 0.000E+00 0.444E+04 0.000E+00 0.000E+00 0.000E+00 0.000E+00 0.000E+00 0.992E-01     1.658    94.052     0.000
FRSE   19 000030010    3    0    2.18150E+00   144.700     0.000     0.000     0.000   106.780    68.500    80.239    47.585     2.569     4.272     0.214     2.136     0.000     0.000   891.631  2000.385    42.253    42.253     0.000    89.862     0.000   132.211    82.150    26.895    29.579    24.211    25.636    16.480     8.809     8.414     0.000     0.000     0.000     0.000     0.000     0.000     0.000     0.000     0.000     0.000     0.004     0.889    -0.738     0.001     0.152    -0.598     0.040     0.000     5.806     1.218     7.096     0.867     0.701     0.000     0.122     0.067     0.000     0.001     0.000     0.000     0.034     0.303     0.000     2.392     5.000     0.019 .00000E+00 .00000E+00 0.125E-05 0.404E+04 0.000E+00 0.000E+00 0.000E+00 0.000E+00 0.000E+00 0.122E+00     0.095    89.862     0.000
FRSE   20 000030011    3    0    2.10259E-03   144.700     0.000     0.000     0.000   106.780    52.546    15.722     0.000     1.335     2.154     0.108     2.136     0.000     0.000   846.147  2000.245   122.626   122.626     0.000     0.001     0.000   122.693    88.452    26.895    29.579    24.211    25.463    16.480     0.000     0.000     0.000     0.000     0.000     0.000     0.000     0.000     0.000     0.000     0.000     0.000     0.000     0.018    -0.014     0.000     0.003    -0.060    -0.047     0.007     0.019     0.052     0.000     0.000     0.000     0.000     0.000     0.000     0.000     0.019     0.000     7.748     0.034    21.147     0.000     0.053     1.047     0.000 .00000E+00 .00000E+00 0.225E+01 0.404E+04 0.000E+00 0.000E+00 0.000E+00 0.000E+00 0.000E+00 0.000E+00     0.066     0.001     0.000
FRSE   21 000030012    3    0    2.45145E-02   144.700     0.000     0.000     0.000   106.780    70.251   148.135   114.442    17.674    35.762     1.788     2.136     0.000     0.000  1009.668  2004.322    57.400    57.400     0.000    55.535    32.758   146.851    88.678    26.895    29.579    24.211    24.968    16.480     1.365     0.770     0.000     0.000     0.000     0.000     0.000     0.000     0.000     0.000     0.000     0.000     0.020     1.431    -1.165     0.002     0.244    -0.565     0.022     0.000     6.884     1.239     5.532     0.674     0.517     0.001     0.100     0.546     0.011     0.005     0.000     0.000     0.034     0.000     0.000     2.439     5.000     0.020 .00000E+00 .00000E+00 0.732E-05 0.444E+04 0.000E+00 0.000E+00 0.000E+00 0.000E+00 0.000E+00 0.100E+00     1.159    55.535     0.000
FRSE   22 000030013    3    0    2.61561E-03   144.700     0.000     0.000     0.000   106.780    52.546    15.723     0.000     1.335     2.154     0.108     2.136     0.000     0.000   846.147  2000.245   122.626   122.626     0.000     0.001     0.000   122.692    88.452    26.895    29.579    24.211    25.463    16.480     0.000     0.000     0.000     0.000     0.000     0.000     0.000     0.000     0.000     0.000     0.000     0.000     0.000     0.018    -0.014     0.000     0.003    -0.060    -0.047     0.007     0.019     0.052     0.000     0.000     0.000     0.000     0.000     0.000     0.000     0.019     0.000     7.748     0.034    21.147     0.000     0.053     1.047     0.000 .00000E+00 .00000E+00 0.225E+01 0.404E+04 0.000E+00 0.000E+00 0.000E+00 0.000E+00 0.000E+00 0.000E+00     0.066     0.001     0.000
FRSE   23 000030014    3    0    2.24625E-02   144.700     0.000     0.000     0.000   106.780    68.498    80.250    47.587     7.351    13.893     0.695     2.136     0.000     0.000  1003.234  2001.541    56.635    56.635     0.000    67.976    11.519   136.535    87.420    26.895    29.579    24.211    25.637    16.480     2.422     2.137     0.000     0.000     0.000     0.000     0.000     0.000     0.000     0.000     0.000     0.000     0.008     0.892    -0.760     0.002     0.152    -0.608     0.019     0.000     4.642     1.156     5.960     0.728     0.577     0.000     0.116     0.248     0.001     0.003     0.000     0.000     0.034     1.165     0.000     2.261     5.000     0.018 .00000E+00 .00000E+00 0.486E-05 0.404E+04 0.000E+00 0.341E+04 0.121E+06 0.000E+00 0.000E+00 0.116E+00     0.406    67.976     0.000
SWCH    1 000010001    1    0    3.14364E-02    93.800     0.000     0.000     0.000   115.441   100.733    82.671    68.303     0.000    12.341     0.617     2.309     0.000     0.000  1000.000  2002.658     0.000     0.000     0.000    34.123    17.809    52.813    63.159    26.877    29.777    23.977    24.242    16.583     0.000     0.000     0.000     0.000     4.002     0.000     0.000     0.000     0.000     0.000     0.000     0.000     3.095     1.503    -0.928     0.828     0.258    -5.234    -3.027     0.000    84.601     5.735     0.000     0.000     0.000     0.000     2.866     0.000     0.002     0.000     0.000     0.000     0.111    12.416     0.000     8.710     5.168     0.302 .00000E+00 .00000E+00 0.236E+01 0.444E+04 0.000E+00 0.000E+00 0.000E+00 0.000E+00 0.000E+00 0.287E+01     0.882    34.123     0.000
FRSE    2 000010002    1    0    3.20521E-03    93.800     0.000     0.000     0.000   115.441    90.034   106.650   118.870     0.000   113.070     5.654     2.309     0.000     0.000  1039.229  2029.819     0.000     0.000     0.000     0.002   182.021   192.086    63.810    26.877    29.777    23.977    24.745    16.583     0.000     0.000     0.000     0.000     0.000     0.000     0.000     0.000     0.000     0.000     0.000     0.000     0.009     1.462    -1.352     0.002     0.250    -0.218    -0.357     0.000     1.466     0.272     0.000     0.000     0.000     0.000     0.000     0.000     0.041     0.000     0.000     0.000     0.047     9.621     0.000     3.982     4.881     1.835 .00000E+00 .00000E+00 0.236E+01 0.444E+04 0.000E+00 0.000E+00 0.000E+00 0.000E+00 0.000E+00 0.000E+00    10.063     0.002     0.000
FRSE    3 000010003    1    0    3.10260E-03    93.800     0.000     0.000     0.000   115.441    90.048   106.469   118.415     0.000   111.354     5.568     2.309     0.000     0.000  1038.079  2029.359     0.000     0.000     0.000     0.482   179.252   189.640    63.774    26.877    29.777    23.977    24.742    16.583     0.000     0.000     0.000     0.000     0.000     0.000     0.000     0.000     0.000     0.000     0.000     0.000     0.009     1.459    -1.349     0.002     0.249    -0.217    -0.352     0.000     1.463     0.271     0.000     0.000     0.000     0.000     0.000     0.000     0.040     0.000     0.000     0.000     0.047     9.597     0.000     3.993     4.890     1.840 .00000E+00 .00000E+00 0.236E+01 0.444E+04 0.000E+00 0.000E+00 0.000E+00 0.000E+00 0.000E+00 0.149E-03     9.906     0.482     0.000
FRSE    4 000010004    1    0    3.18058E-01    93.800     0.000     0.000     0.000   115.441    88.232    95.543    86.618     0.000    12.588     0.629     2.309     0.000     0.000  1000.000  2002.941     0.000     0.000     0.000    33.339    16.096    50.417    61.482    26.877    29.777    23.977    24.525    16.583     0.000     0.000     0.000     0.000     0.000     0.000     0.000     0.000     0.000     0.000     0.000     0.000     0.017     1.383    -1.289     0.002     0.236    -0.418    -0.501     0.000     2.378     0.304     0.000     0.000     0.000     0.000     0.001     0.000     0.002     0.000     0.000     0.000     0.047     0.000     0.000     6.145     5.000     2.831 .00000E+00 .00000E+00 0.236E+01 0.444E+04 0.000E+00 0.000E+00 0.000E+00 0.000E+00 0.000E+00 0.548E-03     0.982    33.339     0.000
FRSE    5 000010005    1    0    3.10096E+00    93.800     0.000     0.000     0.000   115.441    83.249    27.500    17.743     0.000     1.755     0.088     2.309     0.000     0.000   872.250  2000.318     0.000     0.000     0.000    40.338     0.000    40.441    65.903    26.877    29.777    23.977    24.989    16.583     0.000     0.000     0.000     0.000     0.000     0.000     0.000     0.000     0.000     0.000     0.000     0.000     0.002     0.689    -0.815     0.000     0.118    -0.469    -0.499     0.000     0.692     0.235     0.000     0.000     0.000     0.000     0.000     0.000     0.000     0.000     0.000     1.152     0.047     2.800     0.000     5.772     5.000     2.659 .00000E+00 .00000E+00 0.239E+01 0.404E+04 0.000E+00 0.000E+00 0.000E+00 0.000E+00 0.000E+00 0.219E-03     0.103    40.338     0.000
FRSD    6 000010006    1    0    3.12312E-02    93.800     0.000     0.000     0.000   115.441    88.185   108.878   103.126     0.000    20.334     1.017     2.309     0.000     0.000  1002.342  2004.705     0.007     0.007     0.000    27.190    32.279    61.047    75.652    26.877    29.777    23.977    24.545    16.583     0.000     0.000     0.000     0.000     0.000     0.000     0.000     0.000     0.000     0.000     0.000     0.000     0.281     1.474    -1.271     0.200     0.252    -0.536    -0.445     0.000     1.697     0.692     0.000     0.000     0.000     0.000     0.002     0.000     0.003     0.000     0.000     0.000     0.120     7.073     0.000     4.672     4.957     0.271 .00000E+00 .00000E+00 0.239E+01 0.444E+04 0.000E+00 0.000E+00 0.000E+00 0.000E+00 0.000E+00 0.165E-02     1.570    27.190     0.000
FRSE    7 000020001    2    0    3.76952E-02    93.800     0.000     0.000     0.000   115.491    88.899    96.761    90.069     0.000    20.092     1.005     2.310     0.000     0.000  1000.000  2004.895     0.000     0.000     0.000    29.201    29.671    60.513    61.752    26.877    29.777    23.977    24.533    16.583     0.000     0.000     0.000     0.000     0.000     0.000     0.000     0.000     0.000     0.000     0.000     0.000     0.019     1.395    -1.303     0.002     0.238    -0.413    -0.518     0.000     1.459     0.293     0.000     0.000     0.000     0.000     0.001     0.000     0.005     0.000     0.000     0.000     0.047     0.474     0.000     6.093     5.000     2.808 .00000E+00 .00000E+00 0.236E+01 0.444E+04 0.000E+00 0.000E+00 0.000E+00 0.000E+00 0.000E+00 0.634E-03     1.641    29.201     0.000
FRSE    8 000020002    2    0    3.10722E+00    93.800     0.000     0.000     0.000   115.491    83.265    27.468    17.712     0.000     1.818     0.091     2.310     0.000     0.000   876.638  2000.329     0.000     0.000     0.000    40.332     0.000    40.438    65.888    26.877    29.777    23.977    24.988    16.583     0.000     0.000     0.000     0.000     0.000     0.000     0.000     0.000     0.000     0.000     0.000     0.000     0.002     0.689    -0.815     0.000     0.118    -0.469    -0.499     0.000     0.693     0.235     0.000     0.000     0.000     0.000     0.000     0.000     0.000     0.000     0.000     1.160     0.047     2.796     0.000     5.772     5.000     2.660 .00000E+00 .00000E+00 0.239E+01 0.404E+04 0.000E+00 0.000E+00 0.000E+00 0.000E+00 0.000E+00 0.222E-03     0.107    40.332     0.000
FRSE    9 000020003    2    0    3.10261E-03    93.800     0.000     0.000     0.000   115.491    90.001   101.903   105.851     0.000    49.842     2.492     2.310     0.000     0.000  1004.309  2012.766     0.258     0.258     0.000    11.931    79.899    96.384    78.361    26.877    29.777    23.977    24.599    16.583     0.000     0.000     0.000     0.000     0.000     0.000     0.000     0.000     0.000     0.000     0.000     0.000     0.011     1.419    -1.321     0.002     0.242    -0.299    -0.462     0.000     1.425     0.219     0.000     0.000     0.000     0.000     0.000     0.000     0.019     0.000     0.000     0.000     0.047     4.801     0.000     5.337     5.000     2.459 .00000E+00 .00000E+00 0.239E+01 0.444E+04 0.000E+00 0.000E+00 0.000E+00 0.000E+00 0.000E+00 0.329E-03     4.296    11.931     0.000
SWCH   10 000030001    3    0    3.49249E-02    93.800     0.000     0.000     0.000   115.355   100.607    82.483    67.680     0.000    11.067     0.553     2.307     0.000     0.000  1000.000  2002.327     0.000     0.000     0.000    34.928    15.791    51.489    63.115    26.877    29.777    23.977    24.240    16.583     0.000     0.000     0.000     0.000     4.341     0.000     0.000     0.000     0.000     0.000     0.000     0.000     3.064     1.501    -0.924     0.820     0.257    -5.224    -3.013     0.000    84.388     5.724     0.000     0.000     0.000     0.000     2.968     0.000     0.001     0.000     0.000     0.000     0.111    12.476     0.000     8.698     5.172     0.301 .00000E+00 .00000E+00 0.236E+01 0.444E+04 0.000E+00 0.000E+00 0.000E+00 0.000E+00 0.000E+00 0.297E+01     0.770    34.928     0.000
SWCH   11 000030002    3    0    3.12312E-02    93.800     0.000     0.000     0.000   115.355    83.177    20.762    13.474     0.000     2.601     0.130     2.307     0.000     0.000   882.832  2000.384     0.000     0.000     0.000    39.689     0.000    39.812    65.253    26.877    29.777    23.977    24.603    16.583     0.000     0.000     0.000     0.000     6.155     0.000     0.000     0.000     0.000     0.000     0.000     0.000     2.665     0.832    -0.465     0.744     0.143    -4.616    -2.280     0.000    77.855     4.900     0.000     0.000     0.000     0.000     3.152     0.000     0.000     0.000     0.000     5.441     0.111    11.153     0.000     7.969     5.224     0.276 .00000E+00 .00000E+00 0.239E+01 0.404E+04 0.000E+00 0.000E+00 0.000E+00 0.000E+00 0.000E+00 0.315E+01     0.124    39.689     0.000
SWCH   12 000030003    3    0    3.54379E-02    93.800     0.000     0.000     0.000   115.355   101.253    85.186    75.493     0.000    20.126     1.006     2.307     0.000     0.000  1002.421  2004.640     0.082     0.082     0.000    26.332    32.123    60.085    77.698    26.877    29.777    23.977    24.254    16.583     0.000     0.001     0.000     0.000     1.387     0.000     0.000     0.000     0.000     0.000     0.000     0.000     3.219     1.516    -0.943     0.862     0.260    -5.364    -3.235     0.000    85.257     5.857     0.000     0.000     0.000     0.000     2.028     0.000     0.005     0.000     0.000     0.000     0.111    12.111     0.000     8.889     5.240     0.308 .00000E+00 .00000E+00 0.239E+01 0.444E+04 0.000E+00 0.000E+00 0.000E+00 0.000E+00 0.000E+00 0.203E+01     1.548    26.332     0.000
SWCH   13 000030004    3    0    3.12312E-02    93.800     0.000     0.000     0.000   115.355    68.314     4.020     0.000     0.325     0.940     0.047     2.307     0.000     0.000   904.677  2000.229    25.160    25.160     0.000     0.000     0.000    25.237    77.383    26.877    29.777    23.977    23.804    16.583     0.000     0.000     0.000     0.000    52.306     0.000     0.000     0.000     0.000     0.000     0.000     0.000     2.418     0.139     0.278     0.518     0.027    -2.175    -1.457    26.882    52.787     3.481     0.000     0.000     0.000     3.518     0.000     0.102     0.000     0.000     0.000    13.101     0.111     0.677     0.000     4.081     2.096     0.141 .00000E+00 .00000E+00 0.250E+01 0.404E+04 0.000E+00 0.000E+00 0.000E+00 0.000E+00 0.000E+00 0.000E+00     0.076     0.000     0.000
SWCH   14 000030005    3    0    3.33859E-02    93.800     0.000     0.000     0.000   115.355    85.061    21.733    15.658     0.000     5.976     0.299     2.307     0.000     0.000  1000.022  2001.153     0.000     0.000     0.000    35.750     7.118    43.246    65.729    26.877    29.777    23.977    24.623    16.583     0.000     0.000     0.000     0.000     4.298     0.000     0.000     0.000     0.000     0.000     0.000     0.000     2.894     0.847    -0.484     0.787     0.146    -4.763    -2.387     0.000    80.965     5.069     0.000     0.000     0.000     0.000     2.657     0.000     0.000     0.000     0.000     4.881     0.111    10.970     0.000     8.118     5.169     0.281 .00000E+00 .00000E+00 0.239E+01 0.404E+04 0.000E+00 0.000E+00 0.000E+00 0.000E+00 0.000E+00 0.266E+01     0.378    35.750     0.000
FRSD   15 000030006    3    0    3.25651E-02    93.800     0.000     0.000     0.000   115.355    87.701   107.279    98.752     0.000    12.303     0.615     2.307     0.000     0.000  1000.000  2002.665     0.001     0.001     0.000    32.061    16.633    49.582    75.394    26.877    29.777    23.977    24.528    16.583     0.000     0.000     0.000     0.000     0.000     0.000     0.000     0.000     0.000     0.000     0.000     0.000     0.286     1.463    -1.252     0.205     0.250    -0.571    -0.445     0.000     1.689     0.735     0.000     0.000     0.000     0.000     0.002     0.000     0.001     0.000     0.000     0.000     0.120     6.067     0.000     4.838     4.972     0.281 .00000E+00 .00000E+00 0.239E+01 0.444E+04 0.000E+00 0.000E+00 0.000E+00 0.000E+00 0.000E+00 0.180E-02     0.886    32.061     0.000
FRSD   16 000030007    3    0    3.41040E-03    93.800     0.000     0.000     0.000   115.355    62.083     2.496     0.011     0.153     1.192     0.060     2.307     0.000     0.000   822.593  2000.223    31.552    31.552     0.000     0.000     0.000    31.625    83.813    26.877    29.777    23.977    24.495    16.583     0.000     0.000     0.000     0.000     0.000     0.000     0.000     0.000     0.000     0.000     0.000     0.000     0.002     0.010    -0.014     0.002     0.002    -0.021    -0.037     0.001     0.012     0.000     0.000     0.000     0.000     0.000     0.000     0.000     0.000     0.005     0.000    14.589     0.120    30.908     0.000     0.064     0.930     0.004 .00000E+00 .00000E+00 0.249E+01 0.404E+04 0.000E+00 0.000E+00 0.000E+00 0.000E+00 0.000E+00 0.000E+00     0.073     0.000     0.000
FRSD   17 000030008    3    0    3.30781E-02    93.800     0.000     0.000     0.000   115.355    82.574    42.852    33.823     0.000     4.135     0.207     2.307     0.000     0.000   982.127  2000.773     0.339     0.339     0.000    36.080     0.000    36.672    79.861    26.877    29.777    23.977    25.354    16.583     0.000     0.001     0.000     0.000     0.000     0.000     0.000     0.000     0.000     0.000     0.000     0.000     0.191     0.815    -0.809     0.164     0.139    -0.334    -0.237     0.000     0.964     0.452     0.000     0.000     0.000     0.000     0.002     0.000     0.000     0.000     0.000     0.000     0.120    13.620     0.000     3.431     4.541     0.199 .00000E+00 .00000E+00 0.240E+01 0.404E+04 0.000E+00 0.000E+00 0.000E+00 0.000E+00 0.000E+00 0.176E-02     0.253    36.080     0.000
FRSE   18 000030009    3    0    3.36527E-01    93.800     0.000     0.000     0.000   115.355    88.943    97.142    91.017     0.000    21.995     1.100     2.307     0.000     0.000  1000.000  2005.392     0.000     0.000     0.000    28.270    33.467    63.546    61.836    26.877    29.777    23.977    24.538    16.583     0.000     0.000     0.000     0.000     0.000     0.000     0.000     0.000     0.000     0.000     0.000     0.000     0.017     1.395    -1.304     0.002     0.238    -0.401    -0.513     0.000     1.408     0.282     0.000     0.000     0.000     0.000     0.001     0.000     0.005     0.000     0.000     0.000     0.047     0.903     0.000     6.030     5.000     2.778 .00000E+00 .00000E+00 0.236E+01 0.444E+04 0.000E+00 0.000E+00 0.000E+00 0.000E+00 0.000E+00 0.543E-03     1.809    28.270     0.000
FRSE   19 000030010    3    0    3.18150E+00    93.800     0.000     0.000     0.000   115.355    83.226    27.555    17.792     0.000     2.033     0.102     2.307     0.000     0.000   891.255  2000.367     0.000     0.000     0.000    40.349     0.000    40.469    65.928    26.877    29.777    23.977    24.991    16.583     0.000     0.000     0.000     0.000     0.000     0.000     0.000     0.000     0.000     0.000     0.000     0.000     0.003     0.691    -0.817     0.001     0.118    -0.469    -0.499     0.000     0.695     0.236     0.000     0.000     0.000     0.000     0.000     0.000     0.000     0.000     0.000     1.135     0.047     2.774     0.000     5.775     5.000     2.661 .00000E+00 .00000E+00 0.239E+01 0.404E+04 0.000E+00 0.000E+00 0.000E+00 0.000E+00 0.000E+00 0.240E-03     0.119    40.349     0.000
FRSE   20 000030011    3    0    3.10259E-03    93.800     0.000     0.000     0.000   115.355    64.964     3.353     0.091     0.246     1.148     0.057     2.307     0.000     0.000   844.931  2000.227    28.496    28.496     0.000     0.001     0.000    28.572    80.111    26.877    29.777    23.977    24.572    16.583     0.000     0.000     0.000     0.000     0.000     0.000     0.000     0.000     0.000     0.000     0.000     0.000     0.000     0.011    -0.016     0.000     0.002    -0.021    -0.036     0.001     0.010     0.000     0.000     0.000     0.000     0.000     0.000     0.000     0.000     0.005     0.000    13.768     0.047    30.856     0.000     0.061     1.047     0.028 .00000E+00 .00000E+00 0.249E+01 0.404E+04 0.000E+00 0.000E+00 0.000E+00 0.000E+00 0.000E+00 0.000E+00     0.076     0.001     0.000
FRSE   21 000030012    3    0    3.45145E-02    93.800     0.000     0.000     0.000   115.355    89.178    97.783    92.841     0.000    16.639     0.832     2.307     0.000     0.000  1000.000  2003.864     2.388     2.388     0.000    23.825    23.168    50.671    84.200    26.877    29.777    23.977    24.538    16.583     0.000     0.000     0.000     0.000     0.000     0.000     0.000     0.000     0.000     0.000     0.000     0.000     0.016     1.394    -1.291     0.002     0.238    -0.422    -0.520     0.000     2.378     0.304     0.000     0.000     0.000     0.000     0.001     0.000     0.004     0.000     0.000     0.000     0.047     0.000     0.000     6.145     5.000     2.831 .00000E+00 .00000E+00 0.240E+01 0.444E+04 0.000E+00 0.000E+00 0.000E+00 0.000E+00 0.000E+00 0.514E-03     1.290    23.825     0.000
FRSE   22 000030013    3    0    3.61561E-03    93.800     0.000     0.000     0.000   115.355    64.964     3.353     0.091     0.246     1.148     0.057     2.307     0.000     0.000   844.931  2000.227    28.496    28.496     0.000     0.001     0.000    28.573    80.111    26.877    29.777    23.977    24.572    16.583     0.000     0.000     0.000     0.000     0.000     0.000     0.000     0.000     0.000     0.000     0.000     0.000     0.000     0.011    -0.016     0.000     0.002    -0.021    -0.036     0.001     0.010     0.000     0.000     0.000     0.000     0.000     0.000     0.000     0.000     0.005     0.000    13.768     0.047    30.856     0.000     0.061     1.047     0.028 .00000E+00 .00000E+00 0.249E+01 0.404E+04 0.000E+00 0.000E+00 0.000E+00 0.000E+00 0.000E+00 0.000E+00     0.076     0.001     0.000
FRSE   23 000030014    3    0    3.24625E-02    93.800     0.000     0.000     0.000   115.355    86.531    29.508    21.725     0.000     6.505     0.325     2.307     0.000     0.000  1000.000  2001.401     0.000     0.000     0.000    33.117     7.106    40.688    75.391    26.877    29.777    23.977    25.056    16.583     0.000     0.000     0.000     0.000     0.000     0.000     0.000     0.000     0.000     0.000     0.000     0.000     0.007     0.720    -0.840     0.001     0.123    -0.386    -0.474     0.000     0.724     0.173     0.000     0.000     0.000     0.000     0.001     0.000     0.001     0.000     0.000     0.150     0.047     5.895     0.000     5.272     5.000     2.429 .00000E+00 .00000E+00 0.240E+01 0.404E+04 0.000E+00 0.341E+04 0.121E+06 0.000E+00 0.000E+00 0.662E-03     0.465    33.117     0.000
SWCH    1 000010001    1    0    4.14364E-02   238.900     0.000     0.000     0.000   112.395    96.120    47.340    81.656     0.000     4.453     0.223     2.248     0.000     0.000  1000.012  2002.156    11.407    11.407     0.000   102.836     1.971   116.939    54.282    27.012    29.710    24.313    23.265    15.540     0.004     0.019     0.000     0.000     0.000     0.000     0.000     0.000     0.000     0.000     0.000     0.000     1.489     1.283    -0.899     0.392     0.220    -3.492    -3.280     0.000     0.968     4.016     0.046     0.006     0.003     0.003     0.103     0.000     0.000     0.003     0.000     2.117     0.133     1.287     0.000    16.815     5.168     5.927 .00000E+00 .00000E+00 0.107E+01 0.444E+04 0.000E+00 0.000E+00 0.000E+00 0.000E+00 0.000E+00 0.103E+00     0.725   102.836     0.000
FRSE    2 000010002    1    0    4.20521E-03   238.900     0.000     0.000     0.000   112.395    89.056   116.247   163.575    67.730    44.896     2.245     2.248     0.000     0.000  1002.480  2024.002    37.405    25.699     0.000     0.002    77.152   110.914    65.533    27.012    29.710    24.313    24.441    15.540     0.000     0.000     0.000     0.000     0.000     0.000     0.000     0.000     0.000     0.000     0.000     0.000     0.050     1.464    -1.310     0.012     0.250     0.010    -0.081     0.000     0.576     0.146     0.000     0.000     0.000     0.001     0.000     0.167     0.008     0.008     0.000     0.000     0.010     4.865     0.000     0.000     0.000     0.000 .00000E+00 .00000E+00 0.108E+01 0.444E+04 0.000E+00 0.000E+00 0.000E+00 0.000E+00 0.000E+00 0.209E-05     8.062     0.002     0.000
FRSE    3 000010003    1    0    4.10260E-03   238.900     0.000     0.000     0.000   112.395    89.049   115.859   163.405    65.867    44.002     2.200     2.248     0.000     0.000  1002.448  2023.623    37.258    36.485     0.000     0.745    75.184   120.350    65.451    27.012    29.710    24.313    24.436    15.540     0.000     0.002     0.000     0.000     0.000     0.000     0.000     0.000     0.000     0.000     0.000     0.000     0.050     1.460    -1.308     0.012     0.249     0.012    -0.077     0.000     0.575     0.146     0.000     0.000     0.000     0.001     0.000     0.163     0.007     0.011     0.000     0.000     0.010     4.865     0.000     0.000     0.000     0.000 .00000E+00 .00000E+00 0.110E+01 0.444E+04 0.000E+00 0.000E+00 0.000E+00 0.000E+00 0.000E+00 0.221E-03     7.936     0.745     0.000
FRSE    4 000010004    1    0    4.18058E-01   238.900     0.000     0.000     0.000   112.395    85.866    71.414   108.415     0.000     4.542     0.227     2.248     0.000     0.000  1000.011  2002.369    14.572    14.572     0.000   101.149     2.056   118.576    55.770    27.012    29.710    24.313    23.852    15.540     0.003     0.016     0.000     0.000     0.000     0.000     0.000     0.000     0.000     0.000     0.000     0.000     0.142     1.253    -1.248     0.018     0.214    -0.096    -0.198     0.000     1.569     0.247     0.013     0.002     0.001     0.001     0.026     0.000     0.000     0.001     0.000     0.000     0.010     0.157     0.000     0.000     0.000     0.000 .00000E+00 .00000E+00 0.107E+01 0.444E+04 0.000E+00 0.000E+00 0.000E+00 0.000E+00 0.000E+00 0.261E-01     0.798   101.149     0.000
FRSE    5 000010005    1    0    4.10096E+00   238.900     0.000     0.000     0.000   112.395    55.847    16.665    45.325     0.000     0.633     0.032     2.248     0.000     0.000   870.604  2000.262    27.978    27.978     0.000   112.040     0.000   140.106    60.631    27.012    29.710    24.313    24.042    15.540     0.033     0.104     0.000     0.000     0.000     0.000     0.000     0.000     0.000     0.000     0.000     0.000     0.068     0.628    -0.786     0.015     0.107     0.003    -0.154     0.000     0.241     0.054     0.027     0.003     0.002     0.001     0.026     0.000     0.000     0.000     0.000    13.568     0.010     2.549     0.000     0.000     0.000     0.000 .00000E+00 .00000E+00 0.107E+01 0.404E+04 0.000E+00 0.000E+00 0.000E+00 0.000E+00 0.000E+00 0.265E-01     0.087   112.040     0.000
FRSD    6 000010006    1    0    4.12312E-02   238.900     0.000     0.000     0.000   112.395    91.214    88.152   125.274     0.000     7.338     0.367     2.248     0.000     0.000  1000.016  2003.793    49.520    49.520     0.000    66.095     7.050   123.943    71.996    27.012    29.710    24.313    24.078    15.540     0.003     0.010     0.000     0.000     0.000     0.000     0.000     0.000     0.000     0.000     0.000     0.000     0.200     1.358    -1.231     0.143     0.232     0.128    -0.075     0.000     1.512     0.147     0.030     0.004     0.003     0.001     0.003     0.000     0.000     0.015     0.000     0.000     0.109     4.361     0.000     7.543     4.967     3.323 .00000E+00 .00000E+00 0.143E+01 0.444E+04 0.000E+00 0.000E+00 0.000E+00 0.000E+00 0.000E+00 0.264E-02     1.278    66.095     0.000
FRSE    7 000020001    2    0    4.76952E-02   238.900     0.000     0.000     0.000   112.405    86.460    77.100   121.286     0.000     7.250     0.363     2.248     0.000     0.000  1000.016  2003.931    17.569    17.569     0.000    89.212     4.624   112.732    57.134    27.012    29.710    24.313    23.919    15.540     0.002     0.002     0.000     0.000     0.000     0.000     0.000     0.000     0.000     0.000     0.000     0.000     0.097     1.282    -1.261     0.018     0.219    -0.066    -0.178     0.000     0.522     0.223     0.013     0.002     0.001     0.001     0.024     0.000     0.000     0.002     0.000     0.000     0.010     0.992     0.000     0.000     0.000     0.000 .00000E+00 .00000E+00 0.107E+01 0.444E+04 0.000E+00 0.000E+00 0.000E+00 0.000E+00 0.000E+00 0.241E-01     1.327    89.212     0.000
FRSE    8 000020002    2    0    4.10722E+00   238.900     0.000     0.000     0.000   112.405    55.827    16.655    45.319     0.000     0.656     0.033     2.248     0.000     0.000   875.013  2000.272    27.973    27.973     0.000   112.042     0.000   140.105    60.625    27.012    29.710    24.313    24.041    15.540     0.030     0.095     0.000     0.000     0.000     0.000     0.000     0.000     0.000     0.000     0.000     0.000     0.068     0.628    -0.787     0.015     0.107     0.003    -0.154     0.000     0.241     0.054     0.027     0.003     0.002     0.001     0.027     0.000     0.000     0.000     0.000    13.579     0.010     2.544     0.000     0.000     0.000     0.000 .00000E+00 .00000E+00 0.107E+01 0.404E+04 0.000E+00 0.000E+00 0.000E+00 0.000E+00 0.000E+00 0.265E-01     0.090   112.042     0.000
FRSE    9 000020003    2    0    4.10261E-03   238.900     0.000     0.000     0.000   112.405    87.894    96.327   155.232     0.000    17.986     0.899     2.248     0.000     0.000  1000.000  2010.212    70.008    70.008     0.000    23.484    19.148   116.092    77.400    27.012    29.710    24.313    24.183    15.540     0.000     0.006     0.000     0.000     0.000     0.000     0.000     0.000     0.000     0.000     0.000     0.000     0.069     1.366    -1.280     0.016     0.233     0.002    -0.099     0.000     0.548     0.171     0.000     0.000     0.000     0.002     0.008     0.000     0.002     0.010     0.000     0.000     0.010     3.184     0.000     0.000     0.000     0.000 .00000E+00 .00000E+00 0.169E+01 0.444E+04 0.000E+00 0.000E+00 0.000E+00 0.000E+00 0.000E+00 0.764E-02     3.452    23.484     0.000
SWCH   10 000030001    3    0    4.49249E-02   238.900     0.000     0.000     0.000   112.378    95.496    46.410    79.821     0.000     3.994     0.200     2.248     0.000     0.000   999.978  2001.891    11.011    11.011     0.000   104.979     1.569   118.194    54.029    27.012    29.710    24.313    23.250    15.540     0.005     0.040     0.000     0.000     0.000     0.000     0.000     0.000     0.000     0.000     0.000     0.000     1.492     1.278    -0.895     0.394     0.219    -3.451    -3.260     0.000     0.967     3.974     0.054     0.007     0.004     0.003     0.103     0.000     0.000     0.003     0.000     2.409     0.133     1.290     0.000    16.741     5.172     5.901 .00000E+00 .00000E+00 0.107E+01 0.444E+04 0.000E+00 0.000E+00 0.000E+00 0.000E+00 0.000E+00 0.103E+00     0.636   104.979     0.000
SWCH   11 000030002    3    0    4.12312E-02   238.900     0.000     0.000     0.000   112.378    58.478    14.022    42.377     0.000     0.939     0.047     2.248     0.000     0.000   881.477  2000.323    30.112    30.112     0.000   107.032     0.000   137.253    61.717    27.012    29.710    24.313    23.683    15.540     0.017     0.091     0.000     0.000     0.000     0.000     0.000     0.000     0.000     0.000     0.000     0.000     1.581     0.765    -0.449     0.438     0.131    -1.421    -1.990     0.000     0.567     1.710     0.175     0.022     0.012     0.010     0.159     0.000     0.000     0.004     0.000    14.925     0.133     0.766     0.000    12.877     5.224     4.539 .00000E+00 .00000E+00 0.108E+01 0.404E+04 0.000E+00 0.000E+00 0.000E+00 0.000E+00 0.000E+00 0.159E+00     0.108   107.032     0.000
SWCH   12 000030003    3    0    4.54379E-02   238.900     0.000     0.000     0.000   112.378   101.094    55.488    91.825     0.000     7.263     0.363     2.248     0.000     0.000  1000.016  2003.743    46.866    46.866     0.000    64.999     7.056   120.182    71.824    27.012    29.710    24.313    23.416    15.540     0.010     0.032     0.000     0.000     0.000     0.000     0.000     0.000     0.000     0.000     0.000     0.000     1.490     1.331    -0.913     0.393     0.228    -3.729    -3.371     0.000     0.983     4.285     0.110     0.014     0.008     0.013     0.076     0.000     0.000     0.011     0.000     0.098     0.133     1.328     0.000    17.411     5.240     6.137 .00000E+00 .00000E+00 0.134E+01 0.444E+04 0.000E+00 0.000E+00 0.000E+00 0.000E+00 0.000E+00 0.758E-01     1.261    64.999     0.000
SWCH   13 000030004    3    0    4.12312E-02   238.900     0.000     0.000     0.000   112.378    65.771    15.722    55.719     1.787     0.726     0.036     2.248     0.000     0.000   903.119  2000.201   104.037   104.036     0.000     0.000     0.000   104.100    76.163    27.012    29.710    24.313    23.653    15.540     0.000     0.000     0.000     0.000     0.000     0.000     0.000     0.000     0.000     0.000     0.000     0.000     1.709     0.164     0.269     0.366     0.031    -1.056    -1.346     1.733     6.271     0.972     0.000     0.000     0.000     0.144     0.000     0.080     0.000     0.002     0.000    13.228     0.133     0.000     0.000     6.741     2.096     2.376 .00000E+00 .00000E+00 0.108E+01 0.404E+04 0.000E+00 0.000E+00 0.000E+00 0.000E+00 0.000E+00 0.000E+00     0.064     0.000     0.000
SWCH   14 000030005    3    0    4.33859E-02   238.900     0.000     0.000     0.000   112.378    61.706    16.324    48.617     0.000     2.156     0.108     2.248     0.000     0.000   999.721  2000.945    33.703    33.703     0.000    96.919     0.103   131.041    62.786    27.012    29.710    24.313    23.764    15.540     0.014     0.011     0.000     0.000     0.000     0.000     0.000     0.000     0.000     0.000     0.000     0.000     1.621     0.788    -0.467     0.437     0.135    -1.598    -2.097     0.000     0.584     1.894     0.153     0.019     0.011     0.010     0.163     0.000     0.000     0.004     0.000    13.901     0.133     0.768     0.000    13.315     5.169     4.693 .00000E+00 .00000E+00 0.109E+01 0.404E+04 0.000E+00 0.000E+00 0.000E+00 0.000E+00 0.000E+00 0.163E+00     0.316    96.919     0.000
FRSD   15 000030006    3    0    4.25651E-02   238.900     0.000     0.000     0.000   112.378    90.891    81.662   112.588     0.000     4.440     0.222     2.248     0.000     0.000  1000.011  2002.159    44.864    44.864     0.000    78.292     1.959   125.843    70.757    27.012    29.710    24.313    24.003    15.540     0.005     0.003     0.000     0.000     0.000     0.000     0.000     0.000     0.000     0.000     0.000     0.000     0.203     1.327    -1.213     0.146     0.227     0.132    -0.084     0.000     1.484     0.136     0.042     0.005     0.004     0.001     0.003     0.000     0.000     0.012     0.000     0.000     0.109     3.943     0.000     7.757     4.979     3.417 .00000E+00 .00000E+00 0.137E+01 0.444E+04 0.000E+00 0.000E+00 0.000E+00 0.000E+00 0.000E+00 0.290E-02     0.728    78.292     0.000
FRSD   16 000030007    3    0    4.41040E-03   238.900     0.000     0.000     0.000   112.378    64.308    14.481    51.150     1.598     0.713     0.036     2.248     0.000     0.000   821.024  2000.197   121.852   121.852     0.000     0.000     0.000   121.915    83.731    27.012    29.710    24.313    24.522    15.540     0.000     0.000     0.000     0.000     0.000     0.000     0.000     0.000     0.000     0.000     0.000     0.000     0.002     0.015    -0.014     0.002     0.003    -0.009    -0.008     0.001     0.014     0.000     0.000     0.000     0.000     0.000     0.000     0.000     0.000     0.020     0.000    12.274     0.109    29.799     0.000     0.076     0.934     0.033 .00000E+00 .00000E+00 0.205E+01 0.404E+04 0.000E+00 0.000E+00 0.000E+00 0.000E+00 0.000E+00 0.000E+00     0.062     0.000     0.000
FRSD   17 000030008    3    0    4.30781E-02   238.900     0.000     0.000     0.000   112.378    74.512    22.307    48.197     0.000     1.492     0.075     2.248     0.000     0.000   981.297  2000.635    52.821    52.821     0.000    85.847     0.000   138.880    72.194    27.012    29.710    24.313    24.485    15.540     0.008     0.022     0.000     0.000     0.000     0.000     0.000     0.000     0.000     0.000     0.000     0.000     0.136     0.712    -0.782     0.117     0.122     0.053    -0.077     0.000     0.811     0.074     0.049     0.006     0.005     0.000     0.004     0.000     0.000     0.007     0.000     7.115     0.109    10.342     0.000     5.398     4.584     2.378 .00000E+00 .00000E+00 0.139E+01 0.404E+04 0.000E+00 0.000E+00 0.000E+00 0.000E+00 0.000E+00 0.351E-02     0.212    85.847     0.000
FRSE   18 000030009    3    0    4.36527E-01   238.900     0.000     0.000     0.000   112.378    86.563    78.534   124.493     0.000     7.937     0.397     2.248     0.000     0.000  1000.014  2004.327    18.294    18.294     0.000    86.487     5.279   111.522    57.473    27.012    29.710    24.313    23.939    15.540     0.003     0.005     0.000     0.000     0.000     0.000     0.000     0.000     0.000     0.000     0.000     0.000     0.093     1.287    -1.262     0.018     0.220    -0.061    -0.170     0.000     0.523     0.219     0.015     0.002     0.001     0.001     0.024     0.000     0.000     0.002     0.000     0.000     0.010     1.187     0.000     0.000     0.000     0.000 .00000E+00 .00000E+00 0.107E+01 0.444E+04 0.000E+00 0.000E+00 0.000E+00 0.000E+00 0.000E+00 0.236E-01     1.461    86.487     0.000
FRSE   19 000030010    3    0    4.18150E+00   238.900     0.000     0.000     0.000   112.378    55.878    16.683    45.337     0.000     0.734     0.037     2.248     0.000     0.000   889.705  2000.302    27.989    27.989     0.000   112.037     0.000   140.126    60.640    27.012    29.710    24.313    24.043    15.540     0.022     0.065     0.000     0.000     0.000     0.000     0.000     0.000     0.000     0.000     0.000     0.000     0.069     0.630    -0.788     0.015     0.108     0.002    -0.156     0.000     0.242     0.055     0.026     0.003     0.002     0.001     0.027     0.000     0.000     0.000     0.000    13.550     0.010     2.530     0.000     0.000     0.000     0.000 .00000E+00 .00000E+00 0.107E+01 0.404E+04 0.000E+00 0.000E+00 0.000E+00 0.000E+00 0.000E+00 0.267E-01     0.101   112.037     0.000
FRSE   20 000030011    3    0    4.10259E-03   238.900     0.000     0.000     0.000   112.378    64.443    15.902    57.101     1.779     0.761     0.038     2.248     0.000     0.000   843.407  2000.201   111.340   111.340     0.000     0.001     0.000   111.405    79.704    27.012    29.710    24.313    24.573    15.540     0.000     0.000     0.000     0.000     0.000     0.000     0.000     0.000     0.000     0.000     0.000     0.000     0.001     0.014    -0.015     0.003     0.002    -0.009    -0.009     0.005     0.003     0.000     0.000     0.000     0.000     0.000     0.000     0.000     0.000     0.018     0.000    12.260     0.010    11.959     0.000     0.000     0.000     0.000 .00000E+00 .00000E+00 0.117E+01 0.404E+04 0.000E+00 0.000E+00 0.000E+00 0.000E+00 0.000E+00 0.000E+00     0.064     0.001     0.000
FRSE   21 000030012    3    0    4.45145E-02   238.900     0.000     0.000     0.000   112.378    86.188    77.511   111.397     0.000     6.004     0.300     2.248     0.000     0.000  1000.021  2003.115    81.989    81.989     0.000    45.855     3.436   132.329    81.481    27.012    29.710    24.313    23.944    15.540     0.007     0.016     0.000     0.000     0.000     0.000     0.000     0.000     0.000     0.000     0.000     0.000     0.166     1.284    -1.251     0.018     0.219    -0.089    -0.184     0.000     2.112     0.251     0.026     0.003     0.002     0.004     0.014     0.000     0.000     0.006     0.000     0.000     0.010     0.026     0.000     0.000     0.000     0.000 .00000E+00 .00000E+00 0.203E+01 0.444E+04 0.000E+00 0.000E+00 0.000E+00 0.000E+00 0.000E+00 0.144E-01     1.050    45.855     0.000
FRSE   22 000030013    3    0    4.61561E-03   238.900     0.000     0.000     0.000   112.378    64.443    15.902    57.101     1.779     0.761     0.038     2.248     0.000     0.000   843.407  2000.200   111.340   111.340     0.000     0.001     0.000   111.405    79.705    27.012    29.710    24.313    24.573    15.540     0.000     0.000     0.000     0.000     0.000     0.000     0.000     0.000     0.000     0.000     0.000     0.000     0.001     0.014    -0.015     0.003     0.002    -0.009    -0.009     0.005     0.003     0.000     0.000     0.000     0.000     0.000     0.000     0.000     0.000     0.018     0.000    12.260     0.010    11.959     0.000     0.000     0.000     0.000 .00000E+00 .00000E+00 0.117E+01 0.404E+04 0.000E+00 0.000E+00 0.000E+00 0.000E+00 0.000E+00 0.000E+00     0.064     0.001     0.000
FRSE   23 000030014    3    0    4.24625E-02   238.900     0.000     0.000     0.000   112.378    62.039    19.852    53.206     0.000     2.347     0.117     2.248     0.000     0.000   999.767  2001.136    54.547    54.547     0.000    79.950     0.216   135.096    70.889    27.012    29.710    24.313    24.207    15.540     0.011     0.010     0.000     0.000     0.000     0.000     0.000     0.000     0.000     0.000     0.000     0.000     0.061     0.666    -0.811     0.015     0.114    -0.007    -0.136     0.000     0.258     0.080     0.028     0.003     0.003     0.001     0.026     0.000     0.000     0.002     0.000    11.192     0.010     4.495     0.000     0.000     0.000     0.000 .00000E+00 .00000E+00 0.137E+01 0.404E+04 0.000E+00 0.341E+04 0.121E+06 0.000E+00 0.000E+00 0.255E-01     0.382    79.950     0.000
SWCH    1 000010001    1    0    5.14364E-02   134.700     0.000     0.000     0.000   133.590   110.859    65.877    56.272     0.000     1.725     0.086     2.672     0.000     0.000   998.920  2001.652     0.000     0.000     0.000    63.827     0.059    64.475    59.216    26.892    29.158    24.626    23.288    16.880     0.000     0.000     0.000     0.000     0.000     0.000     0.000     0.000     0.000     0.000     0.000     0.000     1.133     1.436    -0.931     0.298     0.246    -3.881    -3.827     0.000     0.000     4.225     0.000     0.000     0.000     0.000     0.061     0.000     0.000     0.000     0.000     0.626     0.121     0.000     0.000    24.334     0.795    16.494 .00000E+00 .00000E+00 0.603E-01 0.444E+04 0.000E+00 0.000E+00 0.000E+00 0.000E+00 0.000E+00 0.613E-01     0.589    63.827     0.000
FRSE    2 000010002    1    0    5.20521E-03   134.700     0.000     0.000     0.000   133.590    88.832   159.350   160.747    46.613    77.296     3.865     2.672     0.000     0.000  1019.329  2020.882     2.080    13.786     0.000     0.005    53.910    74.688    73.458    26.892    29.158    24.626    24.938    16.880     0.000     0.000     0.000     0.000     0.000     0.000     0.000     0.000     0.000     0.000     0.000     0.000     0.289     1.693    -1.356     0.073     0.289     0.151     0.065     0.000     0.000     0.000     0.000     0.000     0.000     0.000     0.000     0.188     0.004     0.004     0.000     0.000     0.000     0.000     0.000     0.000     0.000     0.000 .00000E+00 .00000E+00 0.412E+00 0.444E+04 0.000E+00 0.000E+00 0.000E+00 0.000E+00 0.000E+00 0.313E-05     6.986     0.005     0.000
[...]
SWCH    1 000010001    1    0  4.0.14364E-02  3445.525     0.000     0.000     0.000  1685.350  1047.333   123.589   159.536   104.364   104.841     5.242    33.707     0.000     0.000   990.578  2000.608   533.516   533.516     0.000  1759.000    69.735  2367.754    70.536    26.585    28.867    24.303    23.987    17.431     0.190     0.472     0.000     0.000   146.313     0.000     0.000     0.000     0.000     0.000     0.000     0.000    33.636    19.697   -11.522     8.161     3.380   -31.995   -27.775     0.000   147.481    42.449     2.793     0.361     0.190     1.317    13.906     1.269     0.004     0.198     0.000     1.517     0.888    74.185     0.000    38.498     5.626    25.039 .00000E+00 .00000E+00 0.250E-01 0.000E+00 0.000E+00 0.000E+00 0.000E+00 0.000E+00 0.000E+00 0.139E+02     5.503  1759.000     0.000
FRSE    2 000010002    1    0  4.0.20521E-03  3445.525     0.000     0.000     0.000  1685.350  1036.943   153.182   159.073  1893.460  1876.662    93.833    33.707     0.000     0.000  1065.566  2020.038   515.714   515.036     0.000     0.090  1755.533  2366.287    72.373    26.585    28.867    24.303    24.975    17.431     0.007     0.150     0.000     0.000     0.000     0.000     0.000     0.000     0.000     0.000     0.000     0.000     0.898    19.255   -16.681     0.223     3.287    -0.689    -0.561     0.000     5.334     1.327     0.174     0.021     0.013     0.008     0.000    14.666     0.511     0.146     0.000     0.000     0.074    19.936     0.000     5.712     4.689     3.998 .00000E+00 .00000E+00 0.815E-01 0.000E+00 0.000E+00 0.000E+00 0.000E+00 0.000E+00 0.000E+00 0.896E-04    95.629     0.090     0.000
FRSE    3 000010003    1    0  4.0.10260E-03  3445.525     0.000     0.000     0.000  1685.350  1036.714   153.134   159.069  1863.054  1846.512    92.326    33.707     0.000     0.000  1064.367  2019.711   515.316   515.314     0.000    30.835  1726.710  2366.953    72.365    26.585    28.867    24.303    24.975    17.431     0.174     0.929     0.000     0.000     0.000     0.000     0.000     0.000     0.000     0.000     0.000     0.000     0.899    19.216   -16.648     0.223     3.281    -0.647    -0.513     0.000     5.344     1.330     2.636     0.322     0.205     0.008     0.030    14.521     0.500     0.138     0.000     0.000     0.074    19.864     0.000     5.722     4.696     4.006 .00000E+00 .00000E+00 0.268E-01 0.000E+00 0.000E+00 0.000E+00 0.000E+00 0.000E+00 0.000E+00 0.304E-01    94.095    30.835     0.000
FRSE    4 000010004    1    0  4.0.18058E-01  3445.525     0.000     0.000     0.000  1685.350   989.304   147.064   158.754   154.083   152.345     7.617    33.707     0.000     0.000  1003.723  2001.338   490.135   490.135     0.000  1810.217   111.375  2419.585    71.286    26.585    28.867    24.303    24.867    17.431     5.659    14.528     0.000     0.000     0.000     0.000     0.000     0.000     0.000     0.000     0.000     0.000     2.190    18.556   -15.848     0.324     3.168     0.968     1.103     0.000    11.326     1.954    28.482     3.472     2.625     0.019     1.953     2.943     0.012     0.046     0.000     0.000     0.074     0.645     0.000     8.421     5.000     5.895 .00000E+00 .00000E+00 0.241E-01 0.000E+00 0.000E+00 0.000E+00 0.000E+00 0.000E+00 0.000E+00 0.195E+01     7.858  1810.217     0.000
FRSE    5 000010005    1    0  4.0.10096E+00  3445.525     0.000     0.000     0.000  1685.350   917.228    74.427    90.329    11.166    11.304     0.565    33.707     0.000     0.000   779.352  2000.071   893.669   893.669     0.000  1621.614     0.000  2515.867    80.686    26.585    28.867    24.303    25.567    17.431    55.040    53.122     0.000     0.000     0.000     0.000     0.000     0.000     0.000     0.000     0.000     0.000     1.212    11.535    -9.954     0.283     1.968     0.338     0.710     0.000     7.400     1.729    43.696     5.348     4.288     0.036     1.614     0.115     0.000     0.021     0.000     3.680     0.074     6.906     0.000     7.436     5.000     5.205 .00000E+00 .00000E+00 0.583E-01 0.000E+00 0.000E+00 0.000E+00 0.000E+00 0.000E+00 0.000E+00 0.161E+01     0.584  1621.614     0.000
FRSD    6 000010006    1    0  4.0.12312E-02  3445.525     0.000     0.000     0.000  1685.350  1021.766   147.716   158.841   251.204   248.577    12.429    33.707     0.000     0.000  1009.095  2002.299   852.668   852.668     0.000  1319.230   203.330  2387.944    80.789    26.585    28.867    24.303    24.706    17.431     0.918     1.761     0.000     0.000     0.000     0.000     0.000     0.000     0.000     0.000     0.000     0.000     2.402    18.949   -15.825     0.753     3.237     0.557     0.616     0.000    11.780     2.526    10.747     1.332     0.951     0.045     1.503     3.506     0.022     0.214     0.000     0.000     0.385    11.741     0.000    10.777     4.983     7.544 .00000E+00 .00000E+00 0.628E-01 0.000E+00 0.000E+00 0.000E+00 0.000E+00 0.000E+00 0.000E+00 0.150E+01    12.716  1319.230     0.000
FRSE    7 000020001    2    0  4.0.76952E-02  3445.525     0.000     0.000     0.000  1685.274  1000.518   149.362   158.776   275.089   272.139    13.607    33.705     0.000     0.000  1009.204  2002.609   497.553   497.553     0.000  1670.904   224.911  2407.338    71.690    26.585    28.867    24.303    24.883    17.431     3.407     8.380     0.000     0.000     0.000     0.000     0.000     0.000     0.000     0.000     0.000     0.000     1.641    18.711   -16.044     0.318     3.194     0.802     0.896     0.000     9.776     1.908    24.102     2.941     2.171     0.015     1.812     4.522     0.031     0.063     0.000     0.000     0.074     2.157     0.000     8.215     5.000     5.751 .00000E+00 .00000E+00 0.245E-01 0.000E+00 0.000E+00 0.000E+00 0.000E+00 0.000E+00 0.000E+00 0.181E+01    13.969  1670.904     0.000
FRSE    8 000020002    2    0  4.0.10722E+00  3445.525     0.000     0.000     0.000  1685.274   917.242    74.427    90.331    11.561    11.705     0.585    33.705     0.000     0.000   784.994  2000.071   893.666   893.666     0.000  1621.207     0.000  2515.478    80.686    26.585    28.867    24.303    25.567    17.431    50.603    48.513     0.000     0.000     0.000     0.000     0.000     0.000     0.000     0.000     0.000     0.000     1.216    11.540    -9.958     0.284     1.969     0.338     0.711     0.000     7.403     1.729    43.551     5.330     4.269     0.036     1.615     0.119     0.000     0.022     0.000     3.685     0.074     6.894     0.000     7.437     5.000     5.206 .00000E+00 .00000E+00 0.590E-01 0.000E+00 0.000E+00 0.000E+00 0.000E+00 0.000E+00 0.000E+00 0.161E+01     0.605  1621.207     0.000
FRSE    9 000020003    2    0  4.0.10261E-03  3445.525     0.000     0.000     0.000  1685.274  1026.288   152.037   158.838   752.159   744.900    37.245    33.705     0.000     0.000  1025.553  2007.814  1033.192  1033.192     0.000   632.993   674.409  2378.687    84.278    26.585    28.867    24.303    24.920    17.431     2.828     5.185     0.000     0.000     0.000     0.000     0.000     0.000     0.000     0.000     0.000     0.000     1.264    18.821   -16.260     0.285     3.213     0.371     0.508     0.000     7.565     1.707    23.399     2.858     2.055     0.033     0.826     9.554     0.156     0.141     0.000     0.000     0.074     8.396     0.000     7.347     5.000     5.143 .00000E+00 .00000E+00 0.103E+00 0.000E+00 0.000E+00 0.000E+00 0.000E+00 0.000E+00 0.000E+00 0.826E+00    38.093   632.993     0.000
SWCH   10 000030001    3    0  4.0.49249E-02  3445.525     0.000     0.000     0.000  1685.481  1045.111   121.842   159.526    86.290    87.439     4.372    33.710     0.000     0.000   988.717  2000.465   524.735   524.735     0.000  1788.015    53.368  2370.716    70.206    26.585    28.867    24.303    23.970    17.431     0.240     0.781     0.000     0.000   146.461     0.000     0.000     0.000     0.000     0.000     0.000     0.000    33.548    19.605   -11.474     8.144     3.364   -31.925   -27.716     0.000   147.126    42.376     3.462     0.448     0.237     1.326    14.080     1.065     0.003     0.193     0.000     1.930     0.888    74.220     0.000    38.385     5.628    24.964 .00000E+00 .00000E+00 0.227E-01 0.000E+00 0.000E+00 0.000E+00 0.000E+00 0.000E+00 0.000E+00 0.141E+02     4.598  1788.015     0.000
SWCH   11 000030002    3    0  4.0.12312E-02  3445.525     0.000     0.000     0.000  1685.481   961.755    53.510    87.272     9.679     9.680     0.484    33.710     0.000     0.000   780.805  2000.042   796.425   796.425     0.000  1676.984     0.000  2473.896    76.229    26.585    28.867    24.303    24.680    17.431     0.428     0.772     0.000     0.000   148.117     0.000     0.000     0.000     0.000     0.000     0.000     0.000    32.367    12.782    -5.774     7.996     2.197   -30.537   -26.181     0.000   136.277    39.717     5.681     0.733     0.366     2.565    15.573     0.068     0.000     0.210     0.000    23.060     0.888    75.934     0.000    33.990     5.571    22.027 .00000E+00 .00000E+00 0.477E-01 0.000E+00 0.000E+00 0.000E+00 0.000E+00 0.000E+00 0.000E+00 0.156E+02     0.487  1676.984     0.000
SWCH   12 000030003    3    0  4.0.54379E-02  3445.525     0.000     0.000     0.000  1685.481  1056.412   131.320   159.569   209.504   207.411    10.371    33.710     0.000     0.000  1008.904  2001.838  1041.836  1041.836     0.000  1137.183   164.674  2354.431    83.184    26.585    28.867    24.303    24.061    17.431     0.197     0.312     0.000     0.000   137.914     0.000     0.000     0.000     0.000     0.000     0.000     0.000    34.121    20.011   -11.707     8.239     3.434   -32.435   -28.164     0.000   149.702    42.763     2.911     0.377     0.196     3.262     9.638     2.513     0.017     0.368     0.000     0.150     0.888    73.868     0.000    38.909     5.557    25.312 .00000E+00 .00000E+00 0.125E+00 0.000E+00 0.000E+00 0.000E+00 0.000E+00 0.000E+00 0.000E+00 0.964E+01    10.738  1137.183     0.000
SWCH   13 000030004    3    0  4.0.12312E-02  3445.525     0.000     0.000     0.000  1685.481  1008.795    14.056    15.352    15.745    15.733     0.787    33.710     0.000     0.000   832.374  2000.219  2416.419  2416.419     0.000     0.005     0.000  2417.216    90.125    26.585    28.867    24.303    24.661    17.431     0.000     0.000     0.000     0.000   209.063    13.957     0.000     0.000     0.000     0.000     0.000     0.000    31.075     2.840     3.189     4.839     0.538    -6.426    -6.050    96.658   115.235    17.914     0.000     0.000     0.000    24.472     0.000     0.536     0.000     0.176     0.000    48.616     0.888    57.655    34.704    25.332     5.022    16.404 .00000E+00 .00000E+00 0.250E+01 0.000E+00 0.000E+00 0.000E+00 0.000E+00 0.000E+00 0.000E+00 0.000E+00     0.792     0.005     0.000
SWCH   14 000030005    3    0  4.0.33859E-02  3445.525     0.000     0.000     0.000  1685.481   987.551    62.005    91.108    43.978    43.487     2.174    33.710     0.000     0.000   987.323  2000.296   907.642   907.642     0.000  1505.331     9.386  2424.593    78.500    26.585    28.867    24.303    24.808    17.431     0.353     0.687     0.000     0.000   150.845     0.000     0.000     0.000     0.000     0.000     0.000     0.000    33.500    13.205    -6.013     8.175     2.270   -31.291   -26.853     0.000   141.035    40.601     4.838     0.624     0.306     2.013    15.359     0.436     0.000     0.236     0.000    16.094     0.888    74.946     0.000    35.616     5.636    23.121 .00000E+00 .00000E+00 0.878E-01 0.000E+00 0.000E+00 0.000E+00 0.000E+00 0.000E+00 0.000E+00 0.154E+02     2.235  1505.331     0.000
FRSD   15 000030006    3    0  4.0.25651E-02  3445.525     0.000     0.000     0.000  1685.481  1008.792   144.687   158.816   129.400   128.083     6.404    33.710     0.000     0.000   998.509  2001.000   840.303   840.304     0.000  1466.095    89.483  2402.466    80.397    26.585    28.867    24.303    24.680    17.431     1.558     2.589     0.000     0.000     0.000     0.000     0.000     0.000     0.000     0.000     0.000     0.000     2.596    18.766   -15.602     0.775     3.206     0.696     0.765     0.000    12.764     2.625    15.574     1.936     1.440     0.051     1.595     2.009     0.007     0.181     0.000     0.000     0.385     8.467     0.000    11.200     4.991     7.840 .00000E+00 .00000E+00 0.612E-01 0.000E+00 0.000E+00 0.000E+00 0.000E+00 0.000E+00 0.000E+00 0.159E+01     6.584  1466.095     0.000
FRSD   16 000030007    3    0  4.0.41040E-03  3445.525     0.000     0.000     0.000  1685.481  1055.549     8.239     3.868     9.043     9.098     0.455    27.278     0.000     0.000   750.000  2000.103  2381.385  2381.385     0.000     0.003     0.000  2381.858    90.379    26.585    28.867    24.303    24.951    17.431     0.000     0.000     0.000     0.000     0.000     0.000     0.000     0.000     0.000     0.000     0.000     0.000     0.017     0.191    -0.173     0.018     0.033    -0.347    -0.326     0.122     0.065     0.032     0.000     0.000     0.000     0.018     0.000     0.001     0.000     0.375     0.000    29.964     0.385   102.335     0.026     0.086     1.075     0.060 .00000E+00 .00000E+00 0.250E+01 0.000E+00 0.000E+00 0.000E+00 0.000E+00 0.000E+00 0.000E+00 0.000E+00     0.469     0.003     0.000
FRSD   17 000030008    3    0  4.0.30781E-02  3445.525     0.000     0.000     0.000  1685.481   956.033    73.991    90.386    27.196    27.390     1.370    33.710     0.000     0.000   938.815  2000.162  1229.420  1229.420     0.000  1231.895     0.000  2462.731    86.163    26.585    28.867    24.303    25.471    17.431     4.868     4.905     0.000     0.000     0.000     0.000     0.000     0.000     0.000     0.000     0.000     0.000     1.667    11.894   -10.019     0.615     2.031     0.278     0.559     0.000     8.012     2.021    32.566     4.051     3.180     0.074     1.400     0.264     0.000     0.126     0.000     1.920     0.385    28.675     0.000     8.616     4.843     6.031 .00000E+00 .00000E+00 0.132E+00 0.000E+00 0.000E+00 0.000E+00 0.000E+00 0.000E+00 0.000E+00 0.140E+01     1.416  1231.895     0.000
FRSE   18 000030009    3    0  4.0.36527E-01  3445.525     0.000     0.000     0.000  1685.481  1002.676   149.718   158.773   306.383   303.124    15.156    33.710     0.000     0.000  1011.099  2002.939   498.868   498.868     0.000  1636.203   254.234  2404.853    71.753    26.585    28.867    24.303    24.887    17.431     3.758     7.876     0.000     0.000     0.000     0.000     0.000     0.000     0.000     0.000     0.000     0.000     1.587    18.697   -16.052     0.315     3.192     0.775     0.885     0.000     9.472     1.891    25.106     3.064     2.268     0.014     1.774     4.879     0.037     0.059     0.000     0.000     0.074     2.689     0.000     8.142     5.000     5.699 .00000E+00 .00000E+00 0.233E-01 0.000E+00 0.000E+00 0.000E+00 0.000E+00 0.000E+00 0.000E+00 0.177E+01    15.548  1636.203     0.000
FRSE   19 000030010    3    0  4.0.18150E+00  3445.525     0.000     0.000     0.000  1685.481   917.188    74.428    90.324    12.938    13.096     0.655    33.710     0.000     0.000   803.915  2000.080   893.683   893.683     0.000  1619.874     0.000  2514.233    80.687    26.585    28.867    24.303    25.567    17.431    37.075    33.389     0.000     0.000     0.000     0.000     0.000     0.000     0.000     0.000     0.000     0.000     1.230    11.565    -9.972     0.287     1.973     0.337     0.711     0.000     7.417     1.731    42.937     5.254     4.186     0.037     1.618     0.133     0.000     0.025     0.000     3.671     0.074     6.851     0.000     7.443     5.000     5.210 .00000E+00 .00000E+00 0.572E-01 0.000E+00 0.000E+00 0.000E+00 0.000E+00 0.000E+00 0.000E+00 0.162E+01     0.676  1619.874     0.000
FRSE   20 000030011    3    0  4.0.10259E-03  3445.525     0.000     0.000     0.000  1685.481  1106.593    10.204     7.179    11.614    11.630     0.582    33.710     0.000     0.000   756.303  2000.121  2326.079  2326.079     0.000     0.009     0.000  2326.683    88.981    26.585    28.867    24.303    25.112    17.431     0.000     0.000     0.000     0.000     0.000     0.000     0.000     0.000     0.000     0.000     0.000     0.000     0.008     0.201    -0.188     0.016     0.034    -0.338    -0.317     0.154     0.040     0.029     0.000     0.000     0.000     0.012     0.000     0.002     0.000     0.366     0.000    15.747     0.074    63.281     0.039     0.066     1.094     0.046 .00000E+00 .00000E+00 0.250E+01 0.000E+00 0.000E+00 0.000E+00 0.000E+00 0.000E+00 0.000E+00 0.000E+00     0.595     0.009     0.000
FRSE   21 000030012    3    0  4.0.45145E-02  3445.525     0.000     0.000     0.000  1685.481  1002.966   148.190   158.788   190.961   188.794     9.440    33.710     0.000     0.000  1006.350  2001.692  1347.337  1347.337     0.000   903.388   145.579  2406.062    88.607    26.585    28.867    24.303    24.873    17.431     5.688     4.208     0.000     0.000     0.000     0.000     0.000     0.000     0.000     0.000     0.000     0.000     2.550    18.579   -15.860     0.326     3.172     0.919     1.070     0.000    11.957     1.967    30.744     3.744     2.829     0.108     1.461     3.981     0.020     0.112     0.000     0.000     0.074     0.218     0.000     8.478     5.000     5.935 .00000E+00 .00000E+00 0.179E+00 0.000E+00 0.000E+00 0.000E+00 0.000E+00 0.000E+00 0.000E+00 0.146E+01     9.758   903.388     0.000
FRSE   22 000030013    3    0  4.0.61561E-03  3445.525     0.000     0.000     0.000  1685.481  1106.594    10.204     7.179    11.614    11.631     0.582    33.710     0.000     0.000   756.304  2000.121  2326.082  2326.082     0.000     0.008     0.000  2326.685    88.981    26.585    28.867    24.303    25.112    17.431     0.000     0.000     0.000     0.000     0.000     0.000     0.000     0.000     0.000     0.000     0.000     0.000     0.008     0.201    -0.188     0.016     0.034    -0.338    -0.317     0.154     0.040     0.029     0.000     0.000     0.000     0.012     0.000     0.002     0.000     0.366     0.000    15.747     0.074    63.281     0.039     0.066     1.094     0.046 .00000E+00 .00000E+00 0.250E+01 0.000E+00 0.000E+00 0.000E+00 0.000E+00 0.000E+00 0.000E+00 0.000E+00     0.595     0.008     0.000
FRSE   23 000030014    3    0  4.0.24625E-02  3445.525     0.000     0.000     0.000  1685.481   949.969    79.499    90.357    63.532    62.731     3.137    33.710     0.000     0.000   990.704  2000.479  1279.879  1279.879     0.000  1150.991    28.263  2462.392    87.151    26.585    28.867    24.303    25.612    17.431    11.597    13.542     0.000     0.000     0.000     0.000     0.000     0.000     0.000     0.000     0.000     0.000     1.146    11.851   -10.263     0.280     2.022     0.287     0.644     0.000     6.725     1.643    38.838     4.748     3.695     0.059     1.573     1.064     0.002     0.059     0.000     2.835     0.074    10.244     0.000     7.057     5.000     4.940 .00000E+00 .00000E+00 0.166E+00 0.000E+00 0.000E+00 0.341E+04 0.121E+06 0.000E+00 0.000E+00 0.157E+01     3.258  1150.991     0.000
