1
    SWAT Dec 23 2016    VER 2016/Rev 664                                                                 0/ 0/   0      0: 0: 0

    General Input/Output section (file.cio):                                        
    2/12/2020 14:36:37 QSWAT Workflow v1.5.2                                        
                                                                                    


       SUB      GIS  MON   AREAkm2  PRECIPmm SNOMELTmm     PETmm      ETmm      SWmm    PERCmm    SURQmm    GW_Qmm    WYLDmm  SYLDt/ha ORGNkg/ha ORGPkg/haNSURQkg/ha SOLPkg/ha SEDPkg/ha LAT Q(mm)LATNO3kg/hGWNO3kg/haCHOLAmic/LCBODU mg/L DOXQ mg/L TNO3kg/ha   QTILEmm TVAPkg/ha
BIGSUB   1        0    1.72643E-01 0.269E+02 0.000E+00 0.233E+01 0.231E+01 0.910E+02 0.000E+00 0.424E+01 0.000E+00 0.147E+02 0.295E+00 0.685E+00 0.837E-01 0.414E-03 0.314E-03 0.669E-01 0.105E+02 0.107E-01 0.100E-11 .22743E-02 0.248E+02 0.880E+00 0.000E+00 0.000E+00 0.000E+00
BIGSUB   2        0    1.84750E-01 0.269E+02 0.000E+00 0.233E+01 0.231E+01 0.912E+02 0.000E+00 0.428E+01 0.000E+00 0.147E+02 0.279E+00 0.668E+00 0.816E-01 0.428E-03 0.330E-03 0.652E-01 0.104E+02 0.115E-01 0.100E-11 .22506E-02 0.239E+02 0.878E+00 0.000E+00 0.000E+00 0.000E+00
BIGSUB   3        0    1.42478E-01 0.269E+02 0.000E+00 0.233E+01 0.231E+01 0.917E+02 0.000E+00 0.431E+01 0.000E+00 0.146E+02 0.229E+00 0.626E+00 0.765E-01 0.375E-03 0.337E-03 0.609E-01 0.103E+02 0.123E-01 0.100E-11 .21717E-02 0.210E+02 0.867E+00 0.000E+00 0.000E+00 0.000E+00
BIGSUB   4        0    1.68128E-01 0.269E+02 0.000E+00 0.233E+01 0.229E+01 0.912E+02 0.000E+00 0.446E+01 0.130E-01 0.148E+02 0.273E+00 0.641E+00 0.783E-01 0.523E-03 0.421E-03 0.626E-01 0.103E+02 0.114E-01 0.153E-06 .21342E-02 0.230E+02 0.898E+00 0.000E+00 0.000E+00 0.000E+00
BIGSUB   5        0    1.44632E-01 0.269E+02 0.000E+00 0.233E+01 0.230E+01 0.996E+02 0.887E+00 0.386E+01 0.327E+00 0.141E+02 0.258E+00 0.606E+00 0.740E-01 0.402E-03 0.320E-03 0.591E-01 0.994E+01 0.991E-02 0.126E-03 .19626E-02 0.214E+02 0.872E+00 0.000E+00 0.000E+00 0.000E+00
BIGSUB   6        0    1.85263E-01 0.269E+02 0.000E+00 0.233E+01 0.231E+01 0.101E+03 0.855E+00 0.406E+01 0.601E+00 0.140E+02 0.161E+00 0.532E+00 0.651E-01 0.317E-03 0.348E-03 0.516E-01 0.935E+01 0.127E-01 0.152E-03 .19501E-02 0.162E+02 0.838E+00 0.000E+00 0.000E+00 0.000E+00
BIGSUB   7        0    1.43914E-01 0.269E+02 0.000E+00 0.233E+01 0.230E+01 0.923E+02 0.000E+00 0.448E+01 0.183E+00 0.148E+02 0.197E+00 0.587E+00 0.719E-01 0.432E-03 0.412E-03 0.570E-01 0.101E+02 0.132E-01 0.884E-05 .20651E-02 0.188E+02 0.881E+00 0.000E+00 0.000E+00 0.000E+00
BIGSUB   8        0    1.34680E-01 0.269E+02 0.000E+00 0.233E+01 0.231E+01 0.916E+02 0.536E-01 0.453E+01 0.520E-01 0.147E+02 0.228E+00 0.625E+00 0.765E-01 0.418E-03 0.364E-03 0.609E-01 0.102E+02 0.123E-01 0.589E-05 .27805E-02 0.235E+02 0.862E+00 0.000E+00 0.000E+00 0.000E+00
BIGSUB   9        0    1.21649E-01 0.269E+02 0.000E+00 0.233E+01 0.230E+01 0.127E+03 0.525E+01 0.260E+01 0.188E+01 0.117E+02 0.902E-01 0.316E+00 0.387E-01 0.237E-03 0.268E-03 0.305E-01 0.713E+01 0.979E-02 0.788E-03 .10142E-02 0.865E+01 0.771E+00 0.000E+00 0.000E+00 0.000E+00
BIGSUB  10        0    1.10773E-01 0.269E+02 0.000E+00 0.233E+01 0.231E+01 0.147E+03 0.903E+01 0.209E+01 0.292E+01 0.101E+02 0.576E-01 0.214E+00 0.262E-01 0.163E-03 0.267E-03 0.204E-01 0.498E+01 0.648E-02 0.134E-02 .92741E-03 0.554E+01 0.676E+00 0.000E+00 0.000E+00 0.000E+00
BIGSUB  11        0    1.26677E-01 0.269E+02 0.000E+00 0.233E+01 0.223E+01 0.129E+03 0.539E+01 0.372E+01 0.188E+01 0.122E+02 0.564E-01 0.255E+00 0.313E-01 0.582E-03 0.714E-03 0.246E-01 0.652E+01 0.117E-01 0.639E-03 .97657E-03 0.631E+01 0.822E+00 0.000E+00 0.000E+00 0.000E+00
BIGSUB   1        0    2.72643E-01 0.100E+01 0.000E+00 0.390E+01 0.306E+01 0.889E+02 0.000E+00 0.100E-05 0.000E+00 0.360E+01 0.138E-09 0.100E-08 0.100E-08 0.100E-08 0.100E-08 0.200E-08 0.360E+01 0.367E-02 0.100E-11 .61725E-23 0.000E+00 0.299E+00 0.000E+00 0.000E+00 0.000E+00
BIGSUB   2        0    2.84750E-01 0.100E+01 0.000E+00 0.390E+01 0.306E+01 0.891E+02 0.000E+00 0.100E-05 0.000E+00 0.358E+01 0.236E-09 0.100E-08 0.100E-08 0.100E-08 0.100E-08 0.200E-08 0.358E+01 0.397E-02 0.100E-11 .62299E-23 0.000E+00 0.297E+00 0.000E+00 0.000E+00 0.000E+00
BIGSUB   3        0    2.42478E-01 0.100E+01 0.000E+00 0.390E+01 0.307E+01 0.896E+02 0.000E+00 0.100E-05 0.000E+00 0.355E+01 0.235E-09 0.100E-08 0.100E-08 0.100E-08 0.100E-08 0.200E-08 0.355E+01 0.421E-02 0.100E-11 .63414E-23 0.000E+00 0.295E+00 0.000E+00 0.000E+00 0.000E+00
BIGSUB   4        0    2.68128E-01 0.100E+01 0.000E+00 0.390E+01 0.305E+01 0.891E+02 0.000E+00 0.100E-05 0.131E-01 0.357E+01 0.294E-09 0.100E-08 0.100E-08 0.100E-08 0.100E-08 0.200E-08 0.355E+01 0.391E-02 0.151E-06 .63250E-23 0.000E+00 0.296E+00 0.000E+00 0.000E+00 0.000E+00
BIGSUB   5        0    2.44632E-01 0.100E+01 0.000E+00 0.390E+01 0.307E+01 0.975E+02 0.000E+00 0.448E-04 0.326E+00 0.387E+01 0.134E-08 0.129E-08 0.100E-08 0.113E-07 0.169E-07 0.200E-08 0.353E+01 0.359E-02 0.123E-03 .10403E-13 0.000E+00 0.321E+00 0.000E+00 0.000E+00 0.000E+00
BIGSUB   6        0    2.85263E-01 0.100E+01 0.000E+00 0.390E+01 0.309E+01 0.984E+02 0.000E+00 0.178E-04 0.597E+00 0.394E+01 0.469E-09 0.722E-06 0.892E-07 0.195E-08 0.434E-08 0.678E-07 0.331E+01 0.454E-02 0.148E-03 .24234E-12 0.000E+00 0.327E+00 0.000E+00 0.000E+00 0.000E+00
BIGSUB   7        0    2.43914E-01 0.100E+01 0.000E+00 0.390E+01 0.307E+01 0.903E+02 0.000E+00 0.100E-05 0.182E+00 0.366E+01 0.455E-09 0.100E-08 0.100E-08 0.100E-08 0.100E-08 0.200E-08 0.347E+01 0.455E-02 0.862E-05 .59993E-23 0.000E+00 0.304E+00 0.000E+00 0.000E+00 0.000E+00
BIGSUB   8        0    2.34680E-01 0.100E+01 0.000E+00 0.390E+01 0.307E+01 0.895E+02 0.000E+00 0.551E-03 0.565E-01 0.355E+01 0.114E-08 0.156E-04 0.191E-05 0.277E-07 0.128E-06 0.145E-05 0.349E+01 0.424E-02 0.592E-05 .79962E-09 0.000E+00 0.295E+00 0.000E+00 0.000E+00 0.000E+00
BIGSUB   9        0    2.21649E-01 0.100E+01 0.000E+00 0.390E+01 0.312E+01 0.125E+03 0.000E+00 0.100E-05 0.187E+01 0.488E+01 0.139E-08 0.317E-07 0.418E-08 0.100E-08 0.100E-08 0.403E-08 0.293E+01 0.412E-02 0.772E-03 .36904E-22 0.000E+00 0.405E+00 0.000E+00 0.000E+00 0.000E+00
BIGSUB  10        0    2.10773E-01 0.100E+01 0.000E+00 0.390E+01 0.315E+01 0.145E+03 0.000E+00 0.110E-02 0.291E+01 0.539E+01 0.371E-08 0.725E-04 0.888E-05 0.609E-07 0.172E-06 0.673E-05 0.235E+01 0.323E-02 0.131E-02 .10236E-10 0.000E+00 0.447E+00 0.000E+00 0.000E+00 0.000E+00
BIGSUB  11        0    2.26677E-01 0.100E+01 0.000E+00 0.390E+01 0.309E+01 0.127E+03 0.541E-02 0.825E-02 0.187E+01 0.462E+01 0.405E-08 0.216E-04 0.265E-05 0.162E-05 0.312E-05 0.197E-05 0.266E+01 0.498E-02 0.627E-03 .13660E-08 0.000E+00 0.383E+00 0.000E+00 0.000E+00 0.000E+00
BIGSUB   1        0    3.72643E-01 0.155E+02 0.000E+00 0.471E+01 0.392E+01 0.902E+02 0.000E+00 0.661E+00 0.000E+00 0.822E+01 0.444E-01 0.103E+00 0.126E-01 0.135E-03 0.483E-04 0.101E-01 0.755E+01 0.109E-01 0.100E-11 .26742E-04 0.105E+01 0.621E+00 0.000E+00 0.000E+00 0.000E+00
BIGSUB   2        0    3.84750E-01 0.155E+02 0.000E+00 0.472E+01 0.393E+01 0.905E+02 0.000E+00 0.678E+00 0.000E+00 0.815E+01 0.422E-01 0.101E+00 0.124E-01 0.144E-03 0.525E-04 0.989E-02 0.747E+01 0.108E-01 0.100E-11 .27490E-04 0.104E+01 0.615E+00 0.000E+00 0.000E+00 0.000E+00
BIGSUB   3        0    3.42478E-01 0.155E+02 0.000E+00 0.471E+01 0.393E+01 0.912E+02 0.000E+00 0.688E+00 0.000E+00 0.801E+01 0.353E-01 0.965E-01 0.118E-01 0.122E-03 0.531E-04 0.940E-02 0.732E+01 0.102E-01 0.100E-11 .28523E-04 0.953E+00 0.602E+00 0.000E+00 0.000E+00 0.000E+00
BIGSUB   4        0    3.68128E-01 0.155E+02 0.000E+00 0.471E+01 0.391E+01 0.904E+02 0.338E-01 0.752E+00 0.132E-01 0.824E+01 0.410E-01 0.966E-01 0.118E-01 0.212E-03 0.800E-04 0.943E-02 0.747E+01 0.112E-01 0.151E-06 .25695E-04 0.980E+00 0.624E+00 0.000E+00 0.000E+00 0.000E+00
BIGSUB   5        0    3.44632E-01 0.155E+02 0.000E+00 0.472E+01 0.392E+01 0.986E+02 0.598E+00 0.591E+00 0.324E+00 0.816E+01 0.383E-01 0.895E-01 0.109E-01 0.134E-03 0.487E-04 0.874E-02 0.723E+01 0.106E-01 0.121E-03 .22364E-04 0.889E+00 0.624E+00 0.000E+00 0.000E+00 0.000E+00
BIGSUB   6        0    3.85263E-01 0.155E+02 0.000E+00 0.472E+01 0.396E+01 0.100E+03 0.651E+00 0.675E+00 0.594E+00 0.788E+01 0.260E-01 0.860E-01 0.105E-01 0.104E-03 0.559E-04 0.835E-02 0.659E+01 0.974E-02 0.146E-03 .30625E-04 0.827E+00 0.592E+00 0.000E+00 0.000E+00 0.000E+00
BIGSUB   7        0    3.43914E-01 0.155E+02 0.000E+00 0.472E+01 0.394E+01 0.921E+02 0.284E-02 0.759E+00 0.903E-01 0.796E+01 0.309E-01 0.923E-01 0.113E-01 0.165E-03 0.741E-04 0.897E-02 0.710E+01 0.101E-01 0.417E-05 .29746E-04 0.897E+00 0.597E+00 0.000E+00 0.000E+00 0.000E+00
BIGSUB   8        0    3.34680E-01 0.155E+02 0.000E+00 0.472E+01 0.393E+01 0.911E+02 0.296E-01 0.798E+00 0.607E-01 0.806E+01 0.390E-01 0.102E+00 0.125E-01 0.168E-03 0.626E-04 0.997E-02 0.719E+01 0.101E-01 0.597E-05 .23441E-03 0.230E+01 0.598E+00 0.000E+00 0.000E+00 0.000E+00
BIGSUB   9        0    3.21649E-01 0.155E+02 0.000E+00 0.472E+01 0.395E+01 0.126E+03 0.313E+01 0.374E+00 0.181E+01 0.751E+01 0.135E-01 0.451E-01 0.551E-02 0.790E-04 0.351E-04 0.437E-02 0.525E+01 0.769E-02 0.758E-03 .14536E-04 0.409E+00 0.588E+00 0.000E+00 0.000E+00 0.000E+00
BIGSUB  10        0    3.10773E-01 0.155E+02 0.000E+00 0.472E+01 0.395E+01 0.145E+03 0.534E+01 0.261E+00 0.289E+01 0.715E+01 0.798E-02 0.273E-01 0.333E-02 0.445E-04 0.289E-04 0.262E-02 0.387E+01 0.592E-02 0.129E-02 .11956E-04 0.235E+00 0.566E+00 0.000E+00 0.000E+00 0.000E+00
BIGSUB  11        0    3.26677E-01 0.155E+02 0.000E+00 0.472E+01 0.388E+01 0.127E+03 0.363E+01 0.676E+00 0.187E+01 0.758E+01 0.910E-02 0.404E-01 0.494E-02 0.251E-03 0.134E-03 0.390E-02 0.495E+01 0.106E-01 0.620E-03 .16127E-04 0.326E+00 0.592E+00 0.000E+00 0.000E+00 0.000E+00
BIGSUB   1        0    4.72643E-01 0.640E+01 0.000E+00 0.573E+01 0.454E+01 0.892E+02 0.000E+00 0.100E-05 0.000E+00 0.443E+01 0.138E-09 0.100E-08 0.100E-08 0.100E-08 0.100E-08 0.200E-08 0.443E+01 0.442E-02 0.100E-11 .40726E-23 0.000E+00 0.363E+00 0.000E+00 0.000E+00 0.000E+00
BIGSUB   2        0    4.84750E-01 0.640E+01 0.000E+00 0.573E+01 0.454E+01 0.896E+02 0.000E+00 0.100E-05 0.000E+00 0.438E+01 0.236E-09 0.100E-08 0.100E-08 0.100E-08 0.100E-08 0.200E-08 0.437E+01 0.442E-02 0.100E-11 .41728E-23 0.000E+00 0.358E+00 0.000E+00 0.000E+00 0.000E+00
BIGSUB   3        0    4.42478E-01 0.640E+01 0.000E+00 0.573E+01 0.456E+01 0.904E+02 0.000E+00 0.100E-05 0.000E+00 0.428E+01 0.235E-09 0.100E-08 0.100E-08 0.100E-08 0.100E-08 0.200E-08 0.428E+01 0.426E-02 0.100E-11 .43630E-23 0.000E+00 0.350E+00 0.000E+00 0.000E+00 0.000E+00
BIGSUB   4        0    4.68128E-01 0.640E+01 0.000E+00 0.573E+01 0.452E+01 0.895E+02 0.368E-02 0.323E-03 0.133E-01 0.441E+01 0.294E-09 0.100E-08 0.100E-08 0.389E-06 0.865E-07 0.200E-08 0.439E+01 0.467E-02 0.150E-06 .29209E-13 0.000E+00 0.361E+00 0.000E+00 0.000E+00 0.000E+00
BIGSUB   5        0    4.44632E-01 0.640E+01 0.000E+00 0.573E+01 0.453E+01 0.977E+02 0.103E+00 0.701E-04 0.323E+00 0.464E+01 0.134E-08 0.100E-08 0.100E-08 0.664E-07 0.252E-07 0.200E-08 0.430E+01 0.448E-02 0.119E-03 .24136E-13 0.000E+00 0.380E+00 0.000E+00 0.000E+00 0.000E+00
BIGSUB   6        0    4.85263E-01 0.640E+01 0.000E+00 0.573E+01 0.458E+01 0.996E+02 0.954E-01 0.383E-05 0.590E+00 0.452E+01 0.469E-09 0.100E-08 0.100E-08 0.133E-08 0.155E-08 0.200E-08 0.390E+01 0.449E-02 0.143E-03 .31763E-17 0.000E+00 0.370E+00 0.000E+00 0.000E+00 0.000E+00
BIGSUB   7        0    4.43914E-01 0.640E+01 0.000E+00 0.573E+01 0.456E+01 0.913E+02 0.459E-03 0.185E-03 0.544E-01 0.423E+01 0.455E-09 0.100E-08 0.100E-08 0.238E-06 0.504E-07 0.200E-08 0.416E+01 0.442E-02 0.245E-05 .19910E-13 0.000E+00 0.346E+00 0.000E+00 0.000E+00 0.000E+00
BIGSUB   8        0    4.34680E-01 0.640E+01 0.000E+00 0.573E+01 0.455E+01 0.903E+02 0.697E-02 0.174E-01 0.644E-01 0.430E+01 0.114E-08 0.124E-02 0.152E-03 0.145E-04 0.949E-06 0.125E-03 0.421E+01 0.425E-02 0.599E-05 .75699E-05 0.362E-07 0.352E+00 0.000E+00 0.000E+00 0.000E+00
BIGSUB   9        0    4.21649E-01 0.640E+01 0.000E+00 0.573E+01 0.457E+01 0.126E+03 0.577E+00 0.144E-04 0.178E+01 0.520E+01 0.139E-08 0.100E-08 0.100E-08 0.258E-07 0.483E-08 0.200E-08 0.333E+01 0.405E-02 0.744E-03 .10917E-15 0.000E+00 0.425E+00 0.000E+00 0.000E+00 0.000E+00
BIGSUB  10        0    4.10773E-01 0.640E+01 0.000E+00 0.572E+01 0.457E+01 0.145E+03 0.105E+01 0.187E-03 0.288E+01 0.562E+01 0.371E-08 0.117E-04 0.143E-05 0.216E-07 0.293E-07 0.108E-05 0.262E+01 0.343E-02 0.127E-02 .46140E-13 0.000E+00 0.460E+00 0.000E+00 0.000E+00 0.000E+00
BIGSUB  11        0    4.26677E-01 0.640E+01 0.000E+00 0.572E+01 0.449E+01 0.127E+03 0.686E+00 0.293E-02 0.186E+01 0.505E+01 0.405E-08 0.347E-05 0.426E-06 0.205E-05 0.108E-05 0.318E-06 0.311E+01 0.558E-02 0.612E-03 .11470E-09 0.000E+00 0.413E+00 0.000E+00 0.000E+00 0.000E+00
BIGSUB   1        0    5.72643E-01 0.257E+02 0.000E+00 0.574E+01 0.457E+01 0.910E+02 0.000E+00 0.412E+01 0.000E+00 0.157E+02 0.531E+00 0.105E+01 0.128E+00 0.365E-03 0.298E-03 0.103E+00 0.116E+02 0.179E-01 0.100E-11 .29039E-02 0.350E+02 0.954E+00 0.000E+00 0.000E+00 0.000E+00
BIGSUB   2        0    5.84750E-01 0.257E+02 0.000E+00 0.573E+01 0.457E+01 0.915E+02 0.000E+00 0.418E+01 0.000E+00 0.156E+02 0.503E+00 0.103E+01 0.125E+00 0.370E-03 0.314E-03 0.100E+00 0.114E+02 0.174E-01 0.100E-11 .29353E-02 0.341E+02 0.943E+00 0.000E+00 0.000E+00 0.000E+00
BIGSUB   3        0    5.42478E-01 0.257E+02 0.000E+00 0.574E+01 0.459E+01 0.925E+02 0.000E+00 0.424E+01 0.000E+00 0.154E+02 0.417E+00 0.970E+00 0.119E+00 0.316E-03 0.323E-03 0.944E-01 0.111E+02 0.160E-01 0.100E-11 .29482E-02 0.307E+02 0.919E+00 0.000E+00 0.000E+00 0.000E+00
BIGSUB   4        0    5.68128E-01 0.257E+02 0.000E+00 0.574E+01 0.455E+01 0.911E+02 0.895E-01 0.434E+01 0.135E-01 0.158E+02 0.491E+00 0.982E+00 0.120E+00 0.448E-03 0.400E-03 0.959E-01 0.114E+02 0.182E-01 0.156E-06 .27310E-02 0.326E+02 0.965E+00 0.000E+00 0.000E+00 0.000E+00
BIGSUB   5        0    5.44632E-01 0.257E+02 0.000E+00 0.573E+01 0.455E+01 0.991E+02 0.114E+01 0.373E+01 0.322E+00 0.152E+02 0.462E+00 0.926E+00 0.113E+00 0.354E-03 0.300E-03 0.904E-01 0.111E+02 0.176E-01 0.119E-03 .24615E-02 0.299E+02 0.951E+00 0.000E+00 0.000E+00 0.000E+00
BIGSUB   6        0    5.85263E-01 0.257E+02 0.000E+00 0.573E+01 0.459E+01 0.996E+02 0.247E+01 0.408E+01 0.589E+00 0.154E+02 0.297E+00 0.841E+00 0.103E+00 0.249E-03 0.339E-03 0.816E-01 0.107E+02 0.243E-01 0.142E-03 .25904E-02 0.237E+02 0.936E+00 0.000E+00 0.000E+00 0.000E+00
BIGSUB   7        0    5.43914E-01 0.257E+02 0.000E+00 0.573E+01 0.458E+01 0.926E+02 0.562E+00 0.444E+01 0.601E-01 0.157E+02 0.360E+00 0.917E+00 0.112E+00 0.352E-03 0.398E-03 0.891E-01 0.111E+02 0.206E-01 0.267E-05 .28277E-02 0.276E+02 0.937E+00 0.000E+00 0.000E+00 0.000E+00
BIGSUB   8        0    5.34680E-01 0.257E+02 0.000E+00 0.573E+01 0.458E+01 0.924E+02 0.102E+00 0.445E+01 0.679E-01 0.155E+02 0.411E+00 0.963E+00 0.118E+00 0.359E-03 0.349E-03 0.938E-01 0.110E+02 0.163E-01 0.606E-05 .36562E-02 0.340E+02 0.915E+00 0.000E+00 0.000E+00 0.000E+00
BIGSUB   9        0    5.21649E-01 0.257E+02 0.000E+00 0.573E+01 0.458E+01 0.126E+03 0.623E+01 0.252E+01 0.178E+01 0.125E+02 0.163E+00 0.491E+00 0.601E-01 0.189E-03 0.249E-03 0.474E-01 0.810E+01 0.143E-01 0.742E-03 .13858E-02 0.127E+02 0.829E+00 0.000E+00 0.000E+00 0.000E+00
BIGSUB  10        0    5.10773E-01 0.257E+02 0.000E+00 0.573E+01 0.458E+01 0.145E+03 0.985E+01 0.191E+01 0.288E+01 0.107E+02 0.100E+00 0.327E+00 0.400E-01 0.125E-03 0.232E-03 0.312E-01 0.581E+01 0.914E-02 0.127E-02 .12147E-02 0.782E+01 0.728E+00 0.000E+00 0.000E+00 0.000E+00
BIGSUB  11        0    5.26677E-01 0.257E+02 0.000E+00 0.573E+01 0.449E+01 0.127E+03 0.676E+01 0.355E+01 0.186E+01 0.131E+02 0.102E+00 0.399E+00 0.488E-01 0.428E-03 0.651E-03 0.384E-01 0.763E+01 0.179E-01 0.613E-03 .12574E-02 0.899E+01 0.879E+00 0.000E+00 0.000E+00 0.000E+00
BIGSUB   1        0    6.72643E-01 0.130E+01 0.000E+00 0.577E+01 0.358E+01 0.886E+02 0.000E+00 0.100E-05 0.000E+00 0.405E+01 0.138E-09 0.100E-08 0.100E-08 0.100E-08 0.100E-08 0.200E-08 0.405E+01 0.616E-02 0.100E-11 .48663E-23 0.000E+00 0.331E+00 0.000E+00 0.000E+00 0.000E+00
BIGSUB   2        0    6.84750E-01 0.130E+01 0.000E+00 0.577E+01 0.358E+01 0.891E+02 0.000E+00 0.100E-05 0.000E+00 0.400E+01 0.236E-09 0.100E-08 0.100E-08 0.100E-08 0.100E-08 0.200E-08 0.400E+01 0.599E-02 0.100E-11 .49954E-23 0.000E+00 0.327E+00 0.000E+00 0.000E+00 0.000E+00
BIGSUB   3        0    6.42478E-01 0.130E+01 0.000E+00 0.577E+01 0.360E+01 0.901E+02 0.000E+00 0.100E-05 0.000E+00 0.391E+01 0.235E-09 0.100E-08 0.100E-08 0.100E-08 0.100E-08 0.200E-08 0.390E+01 0.553E-02 0.100E-11 .52420E-23 0.000E+00 0.319E+00 0.000E+00 0.000E+00 0.000E+00
BIGSUB   4        0    6.68128E-01 0.130E+01 0.000E+00 0.577E+01 0.357E+01 0.887E+02 0.000E+00 0.100E-05 0.136E-01 0.402E+01 0.294E-09 0.100E-08 0.100E-08 0.100E-08 0.100E-08 0.200E-08 0.400E+01 0.628E-02 0.161E-06 .49721E-23 0.000E+00 0.328E+00 0.000E+00 0.000E+00 0.000E+00
BIGSUB   5        0    6.44632E-01 0.130E+01 0.000E+00 0.576E+01 0.360E+01 0.967E+02 0.000E+00 0.405E-04 0.322E+00 0.436E+01 0.134E-08 0.170E-08 0.100E-08 0.862E-08 0.151E-07 0.200E-08 0.402E+01 0.631E-02 0.118E-03 .58357E-14 0.000E+00 0.356E+00 0.000E+00 0.000E+00 0.000E+00
BIGSUB   6        0    6.85263E-01 0.130E+01 0.000E+00 0.576E+01 0.363E+01 0.972E+02 0.000E+00 0.159E-04 0.587E+00 0.448E+01 0.469E-09 0.113E-05 0.139E-06 0.160E-08 0.390E-08 0.105E-06 0.386E+01 0.855E-02 0.141E-03 .28666E-12 0.000E+00 0.366E+00 0.000E+00 0.000E+00 0.000E+00
BIGSUB   7        0    6.43914E-01 0.130E+01 0.000E+00 0.576E+01 0.360E+01 0.902E+02 0.000E+00 0.100E-05 0.633E-01 0.397E+01 0.455E-09 0.100E-08 0.100E-08 0.100E-08 0.100E-08 0.200E-08 0.390E+01 0.710E-02 0.277E-05 .50873E-23 0.000E+00 0.324E+00 0.000E+00 0.000E+00 0.000E+00
BIGSUB   8        0    6.34680E-01 0.130E+01 0.000E+00 0.576E+01 0.360E+01 0.899E+02 0.000E+00 0.473E-03 0.711E-01 0.392E+01 0.114E-08 0.214E-04 0.262E-05 0.154E-07 0.108E-06 0.199E-05 0.384E+01 0.562E-02 0.609E-05 .81735E-09 0.000E+00 0.320E+00 0.000E+00 0.000E+00 0.000E+00
BIGSUB   9        0    6.21649E-01 0.130E+01 0.000E+00 0.576E+01 0.372E+01 0.124E+03 0.000E+00 0.100E-05 0.178E+01 0.528E+01 0.139E-08 0.446E-07 0.602E-08 0.100E-08 0.100E-08 0.518E-08 0.341E+01 0.586E-02 0.736E-03 .43384E-22 0.000E+00 0.431E+00 0.000E+00 0.000E+00 0.000E+00
BIGSUB  10        0    6.10773E-01 0.130E+01 0.000E+00 0.576E+01 0.378E+01 0.143E+03 0.000E+00 0.982E-03 0.287E+01 0.581E+01 0.371E-08 0.114E-03 0.139E-04 0.384E-07 0.149E-06 0.105E-04 0.281E+01 0.439E-02 0.126E-02 .11998E-10 0.000E+00 0.475E+00 0.000E+00 0.000E+00 0.000E+00
BIGSUB  11        0    6.26677E-01 0.130E+01 0.000E+00 0.576E+01 0.367E+01 0.124E+03 0.000E+00 0.738E-02 0.186E+01 0.510E+01 0.405E-08 0.337E-04 0.412E-05 0.119E-05 0.275E-05 0.307E-05 0.316E+01 0.723E-02 0.611E-03 .85220E-09 0.000E+00 0.416E+00 0.000E+00 0.000E+00 0.000E+00
BIGSUB   1        0    7.72643E-01 0.000E+00 0.000E+00 0.575E+01 0.225E+01 0.863E+02 0.000E+00 0.100E-05 0.000E+00 0.140E+01 0.138E-09 0.100E-08 0.100E-08 0.100E-08 0.100E-08 0.200E-08 0.139E+01 0.212E-02 0.100E-11 .41100E-22 0.000E+00 0.115E+00 0.000E+00 0.000E+00 0.000E+00
BIGSUB   2        0    7.84750E-01 0.000E+00 0.000E+00 0.575E+01 0.225E+01 0.868E+02 0.000E+00 0.100E-05 0.000E+00 0.138E+01 0.236E-09 0.100E-08 0.100E-08 0.100E-08 0.100E-08 0.200E-08 0.137E+01 0.206E-02 0.100E-11 .42152E-22 0.000E+00 0.114E+00 0.000E+00 0.000E+00 0.000E+00
BIGSUB   3        0    7.42478E-01 0.000E+00 0.000E+00 0.575E+01 0.227E+01 0.878E+02 0.000E+00 0.100E-05 0.000E+00 0.135E+01 0.235E-09 0.100E-08 0.100E-08 0.100E-08 0.100E-08 0.200E-08 0.134E+01 0.190E-02 0.100E-11 .44141E-22 0.000E+00 0.111E+00 0.000E+00 0.000E+00 0.000E+00
BIGSUB   4        0    7.68128E-01 0.000E+00 0.000E+00 0.575E+01 0.224E+01 0.865E+02 0.000E+00 0.100E-05 0.137E-01 0.139E+01 0.294E-09 0.100E-08 0.100E-08 0.100E-08 0.100E-08 0.200E-08 0.137E+01 0.216E-02 0.164E-06 .41279E-22 0.000E+00 0.115E+00 0.000E+00 0.000E+00 0.000E+00
BIGSUB   5        0    7.44632E-01 0.000E+00 0.000E+00 0.575E+01 0.227E+01 0.944E+02 0.000E+00 0.108E-05 0.320E+00 0.179E+01 0.134E-08 0.100E-08 0.100E-08 0.101E-08 0.103E-08 0.200E-08 0.145E+01 0.229E-02 0.117E-03 .10418E-21 0.000E+00 0.148E+00 0.000E+00 0.000E+00 0.000E+00
BIGSUB   6        0    7.85263E-01 0.000E+00 0.000E+00 0.575E+01 0.230E+01 0.949E+02 0.000E+00 0.104E-05 0.585E+00 0.200E+01 0.469E-09 0.395E-08 0.136E-08 0.100E-08 0.101E-08 0.227E-08 0.139E+01 0.304E-02 0.140E-03 .54235E-20 0.000E+00 0.166E+00 0.000E+00 0.000E+00 0.000E+00
BIGSUB   7        0    7.43914E-01 0.000E+00 0.000E+00 0.575E+01 0.227E+01 0.880E+02 0.000E+00 0.100E-05 0.535E-01 0.140E+01 0.455E-09 0.100E-08 0.100E-08 0.100E-08 0.100E-08 0.200E-08 0.134E+01 0.244E-02 0.230E-05 .40862E-22 0.000E+00 0.116E+00 0.000E+00 0.000E+00 0.000E+00
BIGSUB   8        0    7.34680E-01 0.000E+00 0.000E+00 0.575E+01 0.227E+01 0.877E+02 0.000E+00 0.185E-04 0.738E-01 0.140E+01 0.114E-08 0.795E-06 0.981E-07 0.153E-08 0.497E-08 0.757E-07 0.132E+01 0.193E-02 0.609E-05 .44670E-13 0.000E+00 0.116E+00 0.000E+00 0.000E+00 0.000E+00
BIGSUB   9        0    7.21649E-01 0.000E+00 0.000E+00 0.574E+01 0.240E+01 0.122E+03 0.000E+00 0.100E-05 0.177E+01 0.337E+01 0.139E-08 0.100E-08 0.100E-08 0.100E-08 0.100E-08 0.200E-08 0.152E+01 0.256E-02 0.727E-03 .21885E-22 0.000E+00 0.279E+00 0.000E+00 0.000E+00 0.000E+00
BIGSUB  10        0    7.10773E-01 0.000E+00 0.000E+00 0.574E+01 0.246E+01 0.140E+03 0.000E+00 0.253E-05 0.286E+01 0.443E+01 0.371E-08 0.193E-06 0.243E-07 0.100E-08 0.113E-08 0.195E-07 0.144E+01 0.226E-02 0.124E-02 .60193E-19 0.000E+00 0.366E+00 0.000E+00 0.000E+00 0.000E+00
BIGSUB  11        0    7.26677E-01 0.000E+00 0.000E+00 0.574E+01 0.236E+01 0.122E+03 0.000E+00 0.509E-03 0.185E+01 0.330E+01 0.405E-08 0.126E-06 0.162E-07 0.911E-07 0.204E-06 0.133E-07 0.137E+01 0.309E-02 0.606E-03 .82197E-12 0.000E+00 0.273E+00 0.000E+00 0.000E+00 0.000E+00
BIGSUB   1        0    8.72643E-01 0.000E+00 0.000E+00 0.597E+01 0.186E+01 0.845E+02 0.000E+00 0.100E-05 0.000E+00 0.482E+00 0.138E-09 0.100E-08 0.100E-08 0.100E-08 0.100E-08 0.200E-08 0.478E+00 0.727E-03 0.100E-11 .34500E-21 0.000E+00 0.398E-01 0.000E+00 0.000E+00 0.000E+00
BIGSUB   2        0    8.84750E-01 0.000E+00 0.000E+00 0.597E+01 0.186E+01 0.850E+02 0.000E+00 0.100E-05 0.000E+00 0.476E+00 0.236E-09 0.100E-08 0.100E-08 0.100E-08 0.100E-08 0.200E-08 0.472E+00 0.707E-03 0.100E-11 .35289E-21 0.000E+00 0.394E-01 0.000E+00 0.000E+00 0.000E+00
BIGSUB   3        0    8.42478E-01 0.000E+00 0.000E+00 0.597E+01 0.188E+01 0.860E+02 0.000E+00 0.100E-05 0.000E+00 0.467E+00 0.235E-09 0.100E-08 0.100E-08 0.100E-08 0.100E-08 0.200E-08 0.460E+00 0.652E-03 0.100E-11 .36733E-21 0.000E+00 0.386E-01 0.000E+00 0.000E+00 0.000E+00
BIGSUB   4        0    8.68128E-01 0.000E+00 0.000E+00 0.597E+01 0.185E+01 0.846E+02 0.000E+00 0.100E-05 0.138E-01 0.490E+00 0.294E-09 0.100E-08 0.100E-08 0.100E-08 0.100E-08 0.200E-08 0.472E+00 0.741E-03 0.166E-06 .33718E-21 0.000E+00 0.405E-01 0.000E+00 0.000E+00 0.000E+00
BIGSUB   5        0    8.44632E-01 0.000E+00 0.000E+00 0.597E+01 0.189E+01 0.925E+02 0.000E+00 0.100E-05 0.319E+00 0.873E+00 0.134E-08 0.100E-08 0.100E-08 0.100E-08 0.100E-08 0.200E-08 0.538E+00 0.850E-03 0.115E-03 .29849E-21 0.000E+00 0.722E-01 0.000E+00 0.000E+00 0.000E+00
BIGSUB   6        0    8.85263E-01 0.000E+00 0.000E+00 0.597E+01 0.191E+01 0.930E+02 0.000E+00 0.100E-05 0.581E+00 0.112E+01 0.469E-09 0.101E-08 0.100E-08 0.100E-08 0.100E-08 0.200E-08 0.511E+00 0.110E-02 0.137E-03 .11572E-21 0.000E+00 0.924E-01 0.000E+00 0.000E+00 0.000E+00
BIGSUB   7        0    8.43914E-01 0.000E+00 0.000E+00 0.597E+01 0.188E+01 0.861E+02 0.000E+00 0.100E-05 0.440E-01 0.513E+00 0.455E-09 0.100E-08 0.100E-08 0.100E-08 0.100E-08 0.200E-08 0.460E+00 0.838E-03 0.186E-05 .30575E-21 0.000E+00 0.424E-01 0.000E+00 0.000E+00 0.000E+00
BIGSUB   8        0    8.34680E-01 0.000E+00 0.000E+00 0.597E+01 0.188E+01 0.858E+02 0.000E+00 0.165E-05 0.763E-01 0.537E+00 0.114E-08 0.304E-07 0.460E-08 0.102E-08 0.114E-08 0.473E-08 0.453E+00 0.663E-03 0.605E-05 .23084E-17 0.000E+00 0.444E-01 0.000E+00 0.000E+00 0.000E+00
BIGSUB   9        0    8.21649E-01 0.000E+00 0.000E+00 0.597E+01 0.201E+01 0.120E+03 0.000E+00 0.100E-05 0.175E+01 0.256E+01 0.139E-08 0.100E-08 0.100E-08 0.100E-08 0.100E-08 0.200E-08 0.726E+00 0.120E-02 0.715E-03 .15520E-21 0.000E+00 0.212E+00 0.000E+00 0.000E+00 0.000E+00
BIGSUB  10        0    8.10773E-01 0.000E+00 0.000E+00 0.597E+01 0.208E+01 0.138E+03 0.000E+00 0.100E-05 0.285E+01 0.376E+01 0.371E-08 0.120E-08 0.100E-08 0.100E-08 0.100E-08 0.200E-08 0.782E+00 0.123E-02 0.122E-02 .81561E-22 0.000E+00 0.310E+00 0.000E+00 0.000E+00 0.000E+00
BIGSUB  11        0    8.26677E-01 0.000E+00 0.000E+00 0.597E+01 0.198E+01 0.120E+03 0.000E+00 0.446E-04 0.184E+01 0.256E+01 0.405E-08 0.143E-08 0.103E-08 0.902E-08 0.188E-07 0.201E-08 0.641E+00 0.141E-02 0.598E-03 .62868E-15 0.000E+00 0.212E+00 0.000E+00 0.000E+00 0.000E+00
BIGSUB   1        0    9.72643E-01 0.709E+02 0.000E+00 0.427E+01 0.368E+01 0.932E+02 0.000E+00 0.331E+02 0.000E+00 0.499E+02 0.319E+01 0.668E+01 0.817E+00 0.189E-02 0.235E-02 0.653E+00 0.168E+02 0.215E-01 0.100E-11 .11744E+00 0.568E+03 0.142E+01 0.000E+00 0.000E+00 0.000E+00
BIGSUB   2        0    9.84750E-01 0.709E+02 0.000E+00 0.427E+01 0.368E+01 0.935E+02 0.178E+00 0.333E+02 0.000E+00 0.500E+02 0.301E+01 0.652E+01 0.796E+00 0.191E-02 0.244E-02 0.636E+00 0.167E+02 0.234E-01 0.100E-11 .11531E+00 0.545E+03 0.141E+01 0.000E+00 0.000E+00 0.000E+00
BIGSUB   3        0    9.42478E-01 0.709E+02 0.000E+00 0.427E+01 0.368E+01 0.935E+02 0.821E+00 0.336E+02 0.000E+00 0.503E+02 0.247E+01 0.610E+01 0.746E+00 0.164E-02 0.252E-02 0.594E+00 0.167E+02 0.293E-01 0.100E-11 .10866E+00 0.473E+03 0.141E+01 0.000E+00 0.000E+00 0.000E+00
BIGSUB   4        0    9.68128E-01 0.709E+02 0.000E+00 0.427E+01 0.367E+01 0.933E+02 0.729E-01 0.336E+02 0.140E-01 0.501E+02 0.294E+01 0.625E+01 0.764E+00 0.225E-02 0.287E-02 0.611E+00 0.165E+02 0.215E-01 0.173E-06 .11003E+00 0.528E+03 0.149E+01 0.000E+00 0.000E+00 0.000E+00
BIGSUB   5        0    9.44632E-01 0.709E+02 0.000E+00 0.427E+01 0.367E+01 0.101E+03 0.214E+01 0.314E+02 0.320E+00 0.481E+02 0.282E+01 0.613E+01 0.749E+00 0.192E-02 0.259E-02 0.597E+00 0.163E+02 0.217E-01 0.117E-03 .10503E+00 0.499E+03 0.145E+01 0.000E+00 0.000E+00 0.000E+00
BIGSUB   6        0    9.85263E-01 0.709E+02 0.000E+00 0.427E+01 0.368E+01 0.101E+03 0.371E+01 0.321E+02 0.583E+00 0.482E+02 0.169E+01 0.521E+01 0.638E+00 0.134E-02 0.275E-02 0.504E+00 0.155E+02 0.301E-01 0.139E-03 .92854E-01 0.349E+03 0.136E+01 0.000E+00 0.000E+00 0.000E+00
BIGSUB   7        0    9.43914E-01 0.709E+02 0.000E+00 0.427E+01 0.368E+01 0.935E+02 0.120E+01 0.339E+02 0.509E-01 0.503E+02 0.208E+01 0.564E+01 0.691E+00 0.177E-02 0.289E-02 0.549E+00 0.164E+02 0.306E-01 0.217E-05 .10119E+00 0.414E+03 0.144E+01 0.000E+00 0.000E+00 0.000E+00
BIGSUB   8        0    9.34680E-01 0.709E+02 0.000E+00 0.427E+01 0.368E+01 0.932E+02 0.970E+00 0.340E+02 0.798E-01 0.505E+02 0.234E+01 0.594E+01 0.726E+00 0.174E-02 0.263E-02 0.578E+00 0.164E+02 0.294E-01 0.621E-05 .10701E+00 0.460E+03 0.140E+01 0.000E+00 0.000E+00 0.000E+00
BIGSUB   9        0    9.21649E-01 0.709E+02 0.000E+00 0.427E+01 0.368E+01 0.127E+03 0.123E+02 0.261E+02 0.176E+01 0.401E+02 0.107E+01 0.393E+01 0.481E+00 0.121E-02 0.303E-02 0.375E+00 0.122E+02 0.214E-01 0.726E-03 .67124E-01 0.222E+03 0.119E+01 0.000E+00 0.000E+00 0.000E+00
BIGSUB  10        0    9.10773E-01 0.709E+02 0.000E+00 0.427E+01 0.368E+01 0.146E+03 0.184E+02 0.237E+02 0.285E+01 0.354E+02 0.748E+00 0.312E+01 0.381E+00 0.104E-02 0.338E-02 0.293E+00 0.879E+01 0.124E-01 0.124E-02 .56351E-01 0.153E+03 0.990E+00 0.000E+00 0.000E+00 0.000E+00
BIGSUB  11        0    9.26677E-01 0.709E+02 0.000E+00 0.427E+01 0.362E+01 0.128E+03 0.113E+02 0.297E+02 0.185E+01 0.425E+02 0.641E+00 0.288E+01 0.353E+00 0.316E-02 0.540E-02 0.275E+00 0.109E+02 0.223E-01 0.609E-03 .51281E-01 0.146E+03 0.161E+01 0.000E+00 0.000E+00 0.000E+00
BIGSUB   1        0   10.72643E-01 0.498E+02 0.000E+00 0.413E+01 0.359E+01 0.936E+02 0.116E+01 0.194E+02 0.000E+00 0.418E+02 0.138E-09 0.511E+01 0.624E+00 0.116E-02 0.133E-02 0.499E+00 0.223E+02 0.501E-01 0.100E-11 .44206E-01 0.154E-07 0.354E+01 0.000E+00 0.000E+00 0.000E+00
BIGSUB   2        0   10.84750E-01 0.498E+02 0.000E+00 0.413E+01 0.359E+01 0.936E+02 0.143E+01 0.195E+02 0.000E+00 0.418E+02 0.236E-09 0.498E+01 0.609E+00 0.118E-02 0.138E-02 0.487E+00 0.222E+02 0.501E-01 0.100E-11 .43446E-01 0.406E-07 0.354E+01 0.000E+00 0.000E+00 0.000E+00
BIGSUB   3        0   10.42478E-01 0.498E+02 0.000E+00 0.413E+01 0.360E+01 0.936E+02 0.176E+01 0.195E+02 0.000E+00 0.416E+02 0.235E-09 0.467E+01 0.571E+00 0.984E-03 0.141E-02 0.455E+00 0.221E+02 0.506E-01 0.100E-11 .41107E-01 0.284E-07 0.352E+01 0.000E+00 0.000E+00 0.000E+00
BIGSUB   4        0   10.68128E-01 0.498E+02 0.000E+00 0.413E+01 0.358E+01 0.936E+02 0.128E+01 0.198E+02 0.143E-01 0.418E+02 0.294E-09 0.479E+01 0.585E+00 0.143E-02 0.164E-02 0.468E+00 0.219E+02 0.495E-01 0.194E-06 .41493E-01 0.517E-07 0.354E+01 0.000E+00 0.000E+00 0.000E+00
BIGSUB   5        0   10.44632E-01 0.498E+02 0.000E+00 0.412E+01 0.359E+01 0.102E+03 0.280E+01 0.181E+02 0.323E+00 0.399E+02 0.134E-08 0.463E+01 0.566E+00 0.116E-02 0.142E-02 0.452E+00 0.214E+02 0.456E-01 0.122E-03 .38977E-01 0.783E-07 0.337E+01 0.000E+00 0.000E+00 0.000E+00
BIGSUB   6        0   10.85263E-01 0.498E+02 0.000E+00 0.412E+01 0.359E+01 0.101E+03 0.461E+01 0.184E+02 0.590E+00 0.394E+02 0.469E-09 0.400E+01 0.490E+00 0.760E-03 0.150E-02 0.387E+00 0.204E+02 0.457E-01 0.146E-03 .35633E-01 0.860E-07 0.333E+01 0.000E+00 0.000E+00 0.000E+00
BIGSUB   7        0   10.43914E-01 0.498E+02 0.000E+00 0.412E+01 0.359E+01 0.936E+02 0.217E+01 0.197E+02 0.601E-01 0.413E+02 0.455E-09 0.434E+01 0.531E+00 0.108E-02 0.163E-02 0.422E+00 0.215E+02 0.498E-01 0.271E-05 .38746E-01 0.831E-07 0.350E+01 0.000E+00 0.000E+00 0.000E+00
BIGSUB   8        0   10.34680E-01 0.498E+02 0.000E+00 0.412E+01 0.359E+01 0.934E+02 0.187E+01 0.198E+02 0.856E-01 0.416E+02 0.218E-02 0.456E+01 0.557E+00 0.107E-02 0.147E-02 0.443E+00 0.217E+02 0.500E-01 0.666E-05 .41604E-01 0.525E+00 0.347E+01 0.000E+00 0.000E+00 0.000E+00
BIGSUB   9        0   10.21649E-01 0.498E+02 0.000E+00 0.412E+01 0.359E+01 0.127E+03 0.123E+02 0.141E+02 0.179E+01 0.322E+02 0.139E-08 0.290E+01 0.355E+00 0.637E-03 0.151E-02 0.278E+00 0.163E+02 0.329E-01 0.754E-03 .23158E-01 0.221E-06 0.273E+01 0.000E+00 0.000E+00 0.000E+00
BIGSUB  10        0   10.10773E-01 0.498E+02 0.000E+00 0.412E+01 0.359E+01 0.147E+03 0.182E+02 0.123E+02 0.288E+01 0.273E+02 0.371E-08 0.231E+01 0.283E+00 0.486E-03 0.162E-02 0.218E+00 0.120E+02 0.211E-01 0.129E-02 .22235E-01 0.705E-06 0.231E+01 0.000E+00 0.000E+00 0.000E+00
BIGSUB  11        0   10.26677E-01 0.498E+02 0.000E+00 0.412E+01 0.353E+01 0.128E+03 0.120E+02 0.166E+02 0.187E+01 0.331E+02 0.405E-08 0.218E+01 0.267E+00 0.168E-02 0.288E-02 0.209E+00 0.146E+02 0.316E-01 0.635E-03 .19416E-01 0.669E-06 0.281E+01 0.000E+00 0.000E+00 0.000E+00
BIGSUB   1        0   11.72643E-01 0.531E+02 0.000E+00 0.217E+01 0.216E+01 0.950E+02 0.134E+01 0.220E+02 0.000E+00 0.468E+02 0.281E+01 0.477E+01 0.583E+00 0.814E-03 0.146E-02 0.467E+00 0.249E+02 0.594E-01 0.100E-11 .41970E-01 0.330E+03 0.208E+01 0.000E+00 0.000E+00 0.000E+00
BIGSUB   2        0   11.84750E-01 0.531E+02 0.000E+00 0.218E+01 0.216E+01 0.950E+02 0.150E+01 0.220E+02 0.000E+00 0.467E+02 0.264E+01 0.465E+01 0.569E+00 0.824E-03 0.151E-02 0.454E+00 0.247E+02 0.568E-01 0.100E-11 .41139E-01 0.315E+03 0.207E+01 0.000E+00 0.000E+00 0.000E+00
BIGSUB   3        0   11.42478E-01 0.531E+02 0.000E+00 0.217E+01 0.216E+01 0.950E+02 0.184E+01 0.220E+02 0.000E+00 0.464E+02 0.214E+01 0.440E+01 0.538E+00 0.669E-03 0.154E-02 0.429E+00 0.245E+02 0.555E-01 0.100E-11 .39387E-01 0.271E+03 0.205E+01 0.000E+00 0.000E+00 0.000E+00
BIGSUB   4        0   11.68128E-01 0.531E+02 0.000E+00 0.217E+01 0.215E+01 0.951E+02 0.143E+01 0.224E+02 0.148E-01 0.468E+02 0.260E+01 0.448E+01 0.547E+00 0.103E-02 0.179E-02 0.437E+00 0.244E+02 0.580E-01 0.231E-06 .39379E-01 0.307E+03 0.211E+01 0.000E+00 0.000E+00 0.000E+00
BIGSUB   5        0   11.44632E-01 0.531E+02 0.000E+00 0.218E+01 0.216E+01 0.103E+03 0.327E+01 0.207E+02 0.329E+00 0.451E+02 0.249E+01 0.439E+01 0.537E+00 0.820E-03 0.157E-02 0.428E+00 0.240E+02 0.587E-01 0.129E-03 .37624E-01 0.292E+03 0.207E+01 0.000E+00 0.000E+00 0.000E+00
BIGSUB   6        0   11.85263E-01 0.531E+02 0.000E+00 0.218E+01 0.216E+01 0.102E+03 0.482E+01 0.208E+02 0.602E+00 0.440E+02 0.145E+01 0.382E+01 0.468E+00 0.500E-03 0.165E-02 0.370E+00 0.226E+02 0.487E-01 0.156E-03 .34690E-01 0.201E+03 0.194E+01 0.000E+00 0.000E+00 0.000E+00
BIGSUB   7        0   11.43914E-01 0.531E+02 0.000E+00 0.218E+01 0.216E+01 0.950E+02 0.227E+01 0.222E+02 0.716E-01 0.461E+02 0.180E+01 0.411E+01 0.503E+00 0.750E-03 0.178E-02 0.400E+00 0.238E+02 0.539E-01 0.356E-05 .37334E-01 0.238E+03 0.204E+01 0.000E+00 0.000E+00 0.000E+00
BIGSUB   8        0   11.34680E-01 0.531E+02 0.000E+00 0.218E+01 0.216E+01 0.948E+02 0.196E+01 0.223E+02 0.935E-01 0.464E+02 0.203E+01 0.430E+01 0.526E+00 0.742E-03 0.161E-02 0.418E+00 0.240E+02 0.548E-01 0.740E-05 .39720E-01 0.267E+03 0.202E+01 0.000E+00 0.000E+00 0.000E+00
BIGSUB   9        0   11.21649E-01 0.531E+02 0.000E+00 0.218E+01 0.216E+01 0.129E+03 0.129E+02 0.161E+02 0.182E+01 0.365E+02 0.905E+00 0.284E+01 0.347E+00 0.429E-03 0.169E-02 0.271E+00 0.185E+02 0.357E-01 0.799E-03 .22926E-01 0.123E+03 0.172E+01 0.000E+00 0.000E+00 0.000E+00
BIGSUB  10        0   11.10773E-01 0.531E+02 0.000E+00 0.218E+01 0.217E+01 0.148E+03 0.191E+02 0.142E+02 0.293E+01 0.311E+02 0.624E+00 0.227E+01 0.277E+00 0.314E-03 0.183E-02 0.214E+00 0.139E+02 0.243E-01 0.136E-02 .22048E-01 0.867E+02 0.142E+01 0.000E+00 0.000E+00 0.000E+00
BIGSUB  11        0   11.26677E-01 0.531E+02 0.000E+00 0.218E+01 0.211E+01 0.129E+03 0.125E+02 0.188E+02 0.190E+01 0.373E+02 0.540E+00 0.213E+01 0.261E+00 0.119E-02 0.316E-02 0.204E+00 0.165E+02 0.333E-01 0.677E-03 .19293E-01 0.824E+02 0.189E+01 0.000E+00 0.000E+00 0.000E+00
BIGSUB   1        0   12.72643E-01 0.389E+02 0.000E+00 0.188E+01 0.186E+01 0.953E+02 0.133E+01 0.123E+02 0.000E+00 0.360E+02 0.138E-09 0.206E+01 0.252E+00 0.434E-03 0.789E-03 0.202E+00 0.237E+02 0.577E-01 0.100E-11 .96090E-02 0.125E-07 0.301E+01 0.000E+00 0.000E+00 0.000E+00
BIGSUB   2        0   12.84750E-01 0.389E+02 0.000E+00 0.188E+01 0.186E+01 0.953E+02 0.148E+01 0.123E+02 0.000E+00 0.359E+02 0.236E-09 0.202E+01 0.247E+00 0.446E-03 0.819E-03 0.197E+00 0.236E+02 0.543E-01 0.100E-11 .94692E-02 0.329E-07 0.299E+01 0.000E+00 0.000E+00 0.000E+00
BIGSUB   3        0   12.42478E-01 0.389E+02 0.000E+00 0.188E+01 0.186E+01 0.953E+02 0.179E+01 0.123E+02 0.129E-01 0.356E+02 0.235E-09 0.193E+01 0.236E+00 0.351E-03 0.834E-03 0.188E+00 0.233E+02 0.523E-01 0.456E-06 .91829E-02 0.232E-07 0.297E+01 0.000E+00 0.000E+00 0.000E+00
BIGSUB   4        0   12.68128E-01 0.389E+02 0.000E+00 0.188E+01 0.185E+01 0.953E+02 0.142E+01 0.126E+02 0.155E-01 0.359E+02 0.294E-09 0.194E+01 0.237E+00 0.589E-03 0.992E-03 0.189E+00 0.233E+02 0.562E-01 0.284E-06 .90315E-02 0.419E-07 0.300E+01 0.000E+00 0.000E+00 0.000E+00
BIGSUB   5        0   12.44632E-01 0.389E+02 0.000E+00 0.188E+01 0.186E+01 0.104E+03 0.291E+01 0.114E+02 0.337E+00 0.348E+02 0.134E-08 0.188E+01 0.229E+00 0.443E-03 0.829E-03 0.183E+00 0.230E+02 0.585E-01 0.139E-03 .84780E-02 0.328E-07 0.290E+01 0.000E+00 0.000E+00 0.000E+00
BIGSUB   6        0   12.85263E-01 0.389E+02 0.000E+00 0.188E+01 0.187E+01 0.102E+03 0.432E+01 0.115E+02 0.619E+00 0.336E+02 0.469E-09 0.167E+01 0.204E+00 0.259E-03 0.870E-03 0.162E+00 0.215E+02 0.448E-01 0.168E-03 .81428E-02 0.687E-07 0.281E+01 0.000E+00 0.000E+00 0.000E+00
BIGSUB   7        0   12.43914E-01 0.389E+02 0.000E+00 0.188E+01 0.186E+01 0.953E+02 0.218E+01 0.125E+02 0.856E-01 0.353E+02 0.455E-09 0.181E+01 0.221E+00 0.418E-03 0.975E-03 0.176E+00 0.227E+02 0.504E-01 0.476E-05 .87843E-02 0.673E-07 0.294E+01 0.000E+00 0.000E+00 0.000E+00
BIGSUB   8        0   12.34680E-01 0.389E+02 0.000E+00 0.188E+01 0.186E+01 0.951E+02 0.189E+01 0.126E+02 0.103E+00 0.355E+02 0.114E-08 0.189E+01 0.231E+00 0.407E-03 0.879E-03 0.184E+00 0.229E+02 0.517E-01 0.842E-05 .96801E-02 0.175E-06 0.297E+01 0.000E+00 0.000E+00 0.000E+00
BIGSUB   9        0   12.21649E-01 0.389E+02 0.000E+00 0.188E+01 0.186E+01 0.129E+03 0.108E+02 0.829E+01 0.187E+01 0.282E+02 0.139E-08 0.115E+01 0.140E+00 0.231E-03 0.807E-03 0.110E+00 0.179E+02 0.333E-01 0.854E-03 .47450E-02 0.165E-06 0.235E+01 0.000E+00 0.000E+00 0.000E+00
BIGSUB  10        0   12.10773E-01 0.389E+02 0.000E+00 0.188E+01 0.187E+01 0.148E+03 0.161E+02 0.700E+01 0.300E+01 0.238E+02 0.371E-08 0.861E+00 0.105E+00 0.162E-03 0.837E-03 0.815E-01 0.137E+02 0.232E-01 0.145E-02 .49009E-02 0.568E-06 0.198E+01 0.000E+00 0.000E+00 0.000E+00
BIGSUB  11        0   12.26677E-01 0.389E+02 0.000E+00 0.188E+01 0.182E+01 0.129E+03 0.108E+02 0.102E+02 0.194E+01 0.282E+02 0.405E-08 0.891E+00 0.109E+00 0.722E-03 0.166E-02 0.854E-01 0.160E+02 0.304E-01 0.728E-03 .43798E-02 0.531E-06 0.235E+01 0.000E+00 0.000E+00 0.000E+00
BIGSUB   1        0   13.72643E-01 0.150E+02 0.000E+00 0.190E+01 0.189E+01 0.953E+02 0.653E+00 0.789E+00 0.000E+00 0.166E+02 0.268E-01 0.575E-01 0.703E-02 0.521E-04 0.495E-04 0.562E-02 0.158E+02 0.374E-01 0.100E-11 .51911E-05 0.442E+00 0.132E+01 0.000E+00 0.000E+00 0.000E+00
BIGSUB   2        0   13.84750E-01 0.150E+02 0.000E+00 0.190E+01 0.189E+01 0.953E+02 0.727E+00 0.798E+00 0.000E+00 0.165E+02 0.251E-01 0.563E-01 0.688E-02 0.583E-04 0.530E-04 0.550E-02 0.157E+02 0.351E-01 0.100E-11 .51472E-05 0.423E+00 0.131E+01 0.000E+00 0.000E+00 0.000E+00
BIGSUB   3        0   13.42478E-01 0.150E+02 0.000E+00 0.190E+01 0.189E+01 0.953E+02 0.883E+00 0.789E+00 0.260E-01 0.163E+02 0.204E-01 0.540E-01 0.660E-02 0.415E-04 0.523E-04 0.526E-02 0.155E+02 0.336E-01 0.104E-05 .50337E-05 0.366E+00 0.130E+01 0.000E+00 0.000E+00 0.000E+00
BIGSUB   4        0   13.68128E-01 0.150E+02 0.000E+00 0.190E+01 0.188E+01 0.953E+02 0.708E+00 0.869E+00 0.162E-01 0.165E+02 0.247E-01 0.540E-01 0.659E-02 0.989E-04 0.768E-04 0.527E-02 0.156E+02 0.364E-01 0.344E-06 .49182E-05 0.410E+00 0.131E+01 0.000E+00 0.000E+00 0.000E+00
BIGSUB   5        0   13.44632E-01 0.150E+02 0.000E+00 0.190E+01 0.189E+01 0.104E+03 0.127E+01 0.710E+00 0.344E+00 0.165E+02 0.234E-01 0.507E-01 0.620E-02 0.554E-04 0.492E-04 0.496E-02 0.154E+02 0.383E-01 0.148E-03 .45433E-05 0.385E+00 0.132E+01 0.000E+00 0.000E+00 0.000E+00
BIGSUB   6        0   13.85263E-01 0.150E+02 0.000E+00 0.190E+01 0.189E+01 0.102E+03 0.198E+01 0.710E+00 0.636E+00 0.158E+02 0.136E-01 0.436E-01 0.534E-02 0.302E-04 0.506E-04 0.423E-02 0.144E+02 0.287E-01 0.180E-03 .42823E-05 0.258E+00 0.126E+01 0.000E+00 0.000E+00 0.000E+00
BIGSUB   7        0   13.43914E-01 0.150E+02 0.000E+00 0.190E+01 0.188E+01 0.953E+02 0.108E+01 0.835E+00 0.100E+00 0.161E+02 0.171E-01 0.506E-01 0.619E-02 0.668E-04 0.696E-04 0.492E-02 0.152E+02 0.324E-01 0.615E-05 .48514E-05 0.321E+00 0.128E+01 0.000E+00 0.000E+00 0.000E+00
BIGSUB   8        0   13.34680E-01 0.150E+02 0.000E+00 0.190E+01 0.189E+01 0.951E+02 0.933E+00 0.895E+00 0.114E+00 0.163E+02 0.216E-01 0.556E-01 0.680E-02 0.705E-04 0.606E-04 0.542E-02 0.153E+02 0.333E-01 0.955E-05 .56608E-04 0.969E+00 0.128E+01 0.000E+00 0.000E+00 0.000E+00
BIGSUB   9        0   13.21649E-01 0.150E+02 0.000E+00 0.190E+01 0.189E+01 0.129E+03 0.444E+01 0.413E+00 0.192E+01 0.149E+02 0.748E-02 0.242E-01 0.296E-02 0.320E-04 0.336E-04 0.235E-02 0.125E+02 0.220E-01 0.905E-03 .23176E-05 0.140E+00 0.121E+01 0.000E+00 0.000E+00 0.000E+00
BIGSUB  10        0   13.10773E-01 0.150E+02 0.000E+00 0.190E+01 0.189E+01 0.148E+03 0.676E+01 0.285E+00 0.306E+01 0.133E+02 0.466E-02 0.154E-01 0.188E-02 0.164E-04 0.262E-04 0.148E-02 0.986E+01 0.159E-01 0.153E-02 .30874E-05 0.962E-01 0.109E+01 0.000E+00 0.000E+00 0.000E+00
BIGSUB  11        0   13.26677E-01 0.150E+02 0.000E+00 0.190E+01 0.184E+01 0.129E+03 0.488E+01 0.681E+00 0.199E+01 0.140E+02 0.451E-02 0.185E-01 0.226E-02 0.124E-03 0.119E-03 0.178E-02 0.112E+02 0.201E-01 0.777E-03 .25272E-05 0.888E-01 0.113E+01 0.000E+00 0.000E+00 0.000E+00
BIGSUB   1        0   14.72643E-01 0.234E+02 0.000E+00 0.210E+01 0.209E+01 0.951E+02 0.963E+00 0.369E+01 0.000E+00 0.202E+02 0.181E+00 0.394E+00 0.482E-01 0.103E-03 0.229E-03 0.385E-01 0.165E+02 0.380E-01 0.100E-11 .52696E-03 0.102E+02 0.138E+01 0.000E+00 0.000E+00 0.000E+00
BIGSUB   2        0   14.84750E-01 0.234E+02 0.000E+00 0.210E+01 0.209E+01 0.951E+02 0.107E+01 0.371E+01 0.000E+00 0.201E+02 0.170E+00 0.386E+00 0.471E-01 0.111E-03 0.240E-03 0.377E-01 0.164E+02 0.356E-01 0.100E-11 .52123E-03 0.972E+01 0.137E+01 0.000E+00 0.000E+00 0.000E+00
BIGSUB   3        0   14.42478E-01 0.234E+02 0.000E+00 0.210E+01 0.209E+01 0.951E+02 0.130E+01 0.369E+01 0.399E-01 0.199E+02 0.138E+00 0.370E+00 0.452E-01 0.810E-04 0.242E-03 0.360E-01 0.162E+02 0.340E-01 0.181E-05 .50834E-03 0.839E+01 0.136E+01 0.000E+00 0.000E+00 0.000E+00
BIGSUB   4        0   14.68128E-01 0.234E+02 0.000E+00 0.210E+01 0.208E+01 0.951E+02 0.104E+01 0.386E+01 0.170E-01 0.202E+02 0.167E+00 0.370E+00 0.452E-01 0.166E-03 0.307E-03 0.362E-01 0.163E+02 0.370E-01 0.417E-06 .49647E-03 0.945E+01 0.139E+01 0.000E+00 0.000E+00 0.000E+00
BIGSUB   5        0   14.44632E-01 0.234E+02 0.000E+00 0.210E+01 0.209E+01 0.103E+03 0.198E+01 0.334E+01 0.353E+00 0.197E+02 0.159E+00 0.350E+00 0.428E-01 0.108E-03 0.228E-03 0.342E-01 0.160E+02 0.390E-01 0.158E-03 .46033E-03 0.887E+01 0.137E+01 0.000E+00 0.000E+00 0.000E+00
BIGSUB   6        0   14.85263E-01 0.234E+02 0.000E+00 0.210E+01 0.209E+01 0.102E+03 0.301E+01 0.336E+01 0.655E+00 0.190E+02 0.924E-01 0.314E+00 0.385E-01 0.602E-04 0.240E-03 0.305E-01 0.149E+02 0.286E-01 0.194E-03 .45023E-03 0.618E+01 0.130E+01 0.000E+00 0.000E+00 0.000E+00
BIGSUB   7        0   14.43914E-01 0.234E+02 0.000E+00 0.210E+01 0.208E+01 0.951E+02 0.159E+01 0.379E+01 0.115E+00 0.197E+02 0.116E+00 0.348E+00 0.426E-01 0.114E-03 0.294E-03 0.339E-01 0.158E+02 0.327E-01 0.784E-05 .48887E-03 0.739E+01 0.135E+01 0.000E+00 0.000E+00 0.000E+00
BIGSUB   8        0   14.34680E-01 0.234E+02 0.000E+00 0.210E+01 0.209E+01 0.950E+02 0.137E+01 0.387E+01 0.125E+00 0.199E+02 0.133E+00 0.366E+00 0.448E-01 0.108E-03 0.261E-03 0.357E-01 0.159E+02 0.337E-01 0.109E-04 .69958E-03 0.925E+01 0.134E+01 0.000E+00 0.000E+00 0.000E+00
BIGSUB   9        0   14.21649E-01 0.234E+02 0.000E+00 0.210E+01 0.209E+01 0.129E+03 0.710E+01 0.207E+01 0.197E+01 0.167E+02 0.522E-01 0.184E+00 0.225E-01 0.590E-04 0.173E-03 0.178E-01 0.126E+02 0.215E-01 0.959E-03 .24344E-03 0.337E+01 0.123E+01 0.000E+00 0.000E+00 0.000E+00
BIGSUB  10        0   14.10773E-01 0.234E+02 0.000E+00 0.210E+01 0.209E+01 0.148E+03 0.107E+02 0.153E+01 0.313E+01 0.145E+02 0.332E-01 0.118E+00 0.144E-01 0.364E-04 0.155E-03 0.113E-01 0.968E+01 0.153E-01 0.162E-02 .24280E-03 0.216E+01 0.109E+01 0.000E+00 0.000E+00 0.000E+00
BIGSUB  11        0   14.26677E-01 0.234E+02 0.000E+00 0.210E+01 0.204E+01 0.129E+03 0.744E+01 0.288E+01 0.203E+01 0.163E+02 0.314E-01 0.148E+00 0.182E-01 0.218E-03 0.462E-03 0.143E-01 0.113E+02 0.195E-01 0.829E-03 .23000E-03 0.229E+01 0.121E+01 0.000E+00 0.000E+00 0.000E+00
BIGSUB   1        0   15.72643E-01 0.175E+02 0.000E+00 0.244E+01 0.243E+01 0.948E+02 0.737E+00 0.146E+01 0.000E+00 0.158E+02 0.138E-09 0.256E+00 0.313E-01 0.471E-04 0.889E-04 0.250E-01 0.143E+02 0.318E-01 0.100E-11 .87052E-04 0.330E-08 0.132E+01 0.000E+00 0.000E+00 0.000E+00
BIGSUB   2        0   15.84750E-01 0.175E+02 0.000E+00 0.244E+01 0.243E+01 0.948E+02 0.821E+00 0.147E+01 0.000E+00 0.157E+02 0.236E-09 0.251E+00 0.306E-01 0.532E-04 0.943E-04 0.245E-01 0.142E+02 0.298E-01 0.100E-11 .86226E-04 0.289E-08 0.131E+01 0.000E+00 0.000E+00 0.000E+00
BIGSUB   3        0   15.42478E-01 0.175E+02 0.000E+00 0.244E+01 0.243E+01 0.948E+02 0.997E+00 0.146E+01 0.541E-01 0.156E+02 0.235E-09 0.240E+00 0.294E-01 0.377E-04 0.942E-04 0.234E-01 0.141E+02 0.285E-01 0.274E-05 .84103E-04 0.613E-08 0.130E+01 0.000E+00 0.000E+00 0.000E+00
BIGSUB   4        0   15.68128E-01 0.175E+02 0.000E+00 0.244E+01 0.242E+01 0.948E+02 0.798E+00 0.156E+01 0.179E-01 0.158E+02 0.976E-06 0.240E+00 0.294E-01 0.887E-04 0.129E-03 0.235E-01 0.142E+02 0.310E-01 0.500E-06 .82491E-04 0.830E-04 0.131E+01 0.000E+00 0.000E+00 0.000E+00
BIGSUB   5        0   15.44632E-01 0.175E+02 0.000E+00 0.244E+01 0.242E+01 0.103E+03 0.147E+01 0.131E+01 0.361E+00 0.155E+02 0.134E-08 0.226E+00 0.276E-01 0.507E-04 0.876E-04 0.221E-01 0.139E+02 0.326E-01 0.167E-03 .75967E-04 0.535E-08 0.129E+01 0.000E+00 0.000E+00 0.000E+00
BIGSUB   6        0   15.85263E-01 0.175E+02 0.000E+00 0.244E+01 0.243E+01 0.102E+03 0.227E+01 0.131E+01 0.675E+00 0.150E+02 0.469E-09 0.203E+00 0.248E-01 0.289E-04 0.913E-04 0.197E-01 0.130E+02 0.239E-01 0.207E-03 .74439E-04 0.174E-07 0.125E+01 0.000E+00 0.000E+00 0.000E+00
BIGSUB   7        0   15.43914E-01 0.175E+02 0.000E+00 0.244E+01 0.242E+01 0.948E+02 0.122E+01 0.152E+01 0.131E+00 0.154E+02 0.589E-06 0.226E+00 0.277E-01 0.606E-04 0.120E-03 0.220E-01 0.138E+02 0.273E-01 0.978E-05 .81198E-04 0.499E-04 0.128E+01 0.000E+00 0.000E+00 0.000E+00
BIGSUB   8        0   15.34680E-01 0.175E+02 0.000E+00 0.244E+01 0.243E+01 0.947E+02 0.105E+01 0.159E+01 0.137E+00 0.156E+02 0.556E-02 0.242E+00 0.297E-01 0.569E-04 0.105E-03 0.236E-01 0.138E+02 0.282E-01 0.124E-04 .27163E-03 0.107E+01 0.128E+01 0.000E+00 0.000E+00 0.000E+00
BIGSUB   9        0   15.21649E-01 0.175E+02 0.000E+00 0.244E+01 0.242E+01 0.129E+03 0.519E+01 0.757E+00 0.202E+01 0.138E+02 0.139E-08 0.113E+00 0.138E-01 0.294E-04 0.590E-04 0.109E-01 0.109E+02 0.180E-01 0.101E-02 .40312E-04 0.131E-07 0.114E+01 0.000E+00 0.000E+00 0.000E+00
BIGSUB  10        0   15.10773E-01 0.175E+02 0.000E+00 0.244E+01 0.243E+01 0.148E+03 0.787E+01 0.521E+00 0.320E+01 0.122E+02 0.371E-08 0.714E-01 0.873E-02 0.161E-04 0.469E-04 0.686E-02 0.840E+01 0.127E-01 0.170E-02 .45225E-04 0.145E-06 0.102E+01 0.000E+00 0.000E+00 0.000E+00
BIGSUB  11        0   15.26677E-01 0.175E+02 0.000E+00 0.244E+01 0.237E+01 0.129E+03 0.561E+01 0.116E+01 0.208E+01 0.132E+02 0.842E-06 0.950E-01 0.116E-01 0.121E-03 0.190E-03 0.918E-02 0.986E+01 0.163E-01 0.880E-03 .40151E-04 0.717E-04 0.110E+01 0.000E+00 0.000E+00 0.000E+00
BIGSUB   1        0   16.72643E-01 0.840E+01 0.000E+00 0.275E+01 0.274E+01 0.945E+02 0.248E+00 0.100E-05 0.000E+00 0.869E+01 0.138E-09 0.100E-08 0.100E-08 0.100E-08 0.100E-08 0.200E-08 0.869E+01 0.173E-01 0.100E-11 .10593E-23 0.000E+00 0.720E+00 0.000E+00 0.000E+00 0.000E+00
BIGSUB   2        0   16.84750E-01 0.840E+01 0.000E+00 0.276E+01 0.274E+01 0.945E+02 0.281E+00 0.121E-02 0.000E+00 0.864E+01 0.236E-09 0.100E-08 0.100E-08 0.897E-06 0.304E-06 0.200E-08 0.863E+01 0.163E-01 0.100E-11 .20679E-10 0.000E+00 0.715E+00 0.000E+00 0.000E+00 0.000E+00
BIGSUB   3        0   16.42478E-01 0.840E+01 0.000E+00 0.275E+01 0.273E+01 0.945E+02 0.349E+00 0.100E-05 0.677E-01 0.860E+01 0.235E-09 0.100E-08 0.100E-08 0.100E-08 0.100E-08 0.200E-08 0.852E+01 0.157E-01 0.374E-05 .10823E-23 0.000E+00 0.712E+00 0.000E+00 0.000E+00 0.000E+00
BIGSUB   4        0   16.68128E-01 0.840E+01 0.000E+00 0.275E+01 0.272E+01 0.945E+02 0.279E+00 0.114E-01 0.187E-01 0.864E+01 0.294E-09 0.100E-08 0.100E-08 0.536E-05 0.269E-05 0.200E-08 0.860E+01 0.169E-01 0.581E-06 .13840E-09 0.000E+00 0.715E+00 0.000E+00 0.000E+00 0.000E+00
BIGSUB   5        0   16.44632E-01 0.840E+01 0.000E+00 0.276E+01 0.274E+01 0.103E+03 0.530E+00 0.146E-02 0.369E+00 0.885E+01 0.134E-08 0.100E-08 0.100E-08 0.683E-06 0.430E-06 0.200E-08 0.847E+01 0.178E-01 0.175E-03 .33655E-10 0.000E+00 0.733E+00 0.000E+00 0.000E+00 0.000E+00
BIGSUB   6        0   16.85263E-01 0.840E+01 0.000E+00 0.276E+01 0.274E+01 0.101E+03 0.845E+00 0.582E-05 0.694E+00 0.866E+01 0.469E-09 0.300E-06 0.376E-07 0.111E-08 0.183E-08 0.293E-07 0.793E+01 0.135E-01 0.218E-03 .52609E-14 0.000E+00 0.717E+00 0.000E+00 0.000E+00 0.000E+00
BIGSUB   7        0   16.43914E-01 0.840E+01 0.000E+00 0.276E+01 0.273E+01 0.945E+02 0.442E+00 0.653E-02 0.146E+00 0.852E+01 0.455E-09 0.100E-08 0.100E-08 0.324E-05 0.156E-05 0.200E-08 0.835E+01 0.152E-01 0.117E-04 .84306E-10 0.000E+00 0.705E+00 0.000E+00 0.000E+00 0.000E+00
BIGSUB   8        0   16.34680E-01 0.840E+01 0.000E+00 0.276E+01 0.274E+01 0.943E+02 0.375E+00 0.398E-01 0.148E+00 0.859E+01 0.114E-08 0.190E-02 0.232E-03 0.789E-05 0.195E-05 0.191E-03 0.839E+01 0.156E-01 0.138E-04 .14992E-04 0.409E-07 0.711E+00 0.000E+00 0.000E+00 0.000E+00
BIGSUB   9        0   16.21649E-01 0.840E+01 0.000E+00 0.276E+01 0.274E+01 0.128E+03 0.195E+01 0.190E-02 0.206E+01 0.919E+01 0.139E-08 0.100E-08 0.100E-08 0.133E-05 0.484E-06 0.200E-08 0.703E+01 0.106E-01 0.105E-02 .31220E-10 0.000E+00 0.761E+00 0.000E+00 0.000E+00 0.000E+00
BIGSUB  10        0   16.10773E-01 0.840E+01 0.000E+00 0.276E+01 0.275E+01 0.147E+03 0.305E+01 0.318E-03 0.326E+01 0.908E+01 0.371E-08 0.292E-04 0.358E-05 0.722E-08 0.420E-07 0.271E-05 0.568E+01 0.780E-02 0.178E-02 .20205E-12 0.000E+00 0.752E+00 0.000E+00 0.000E+00 0.000E+00
BIGSUB  11        0   16.26677E-01 0.840E+01 0.000E+00 0.276E+01 0.268E+01 0.129E+03 0.225E+01 0.270E-01 0.213E+01 0.862E+01 0.405E-08 0.899E-05 0.110E-05 0.113E-04 0.756E-05 0.820E-06 0.638E+01 0.987E-02 0.924E-03 .10200E-08 0.000E+00 0.714E+00 0.000E+00 0.000E+00 0.000E+00
BIGSUB   1        0   17.72643E-01 0.323E+02 0.000E+00 0.294E+01 0.286E+01 0.943E+02 0.107E+01 0.815E+01 0.000E+00 0.245E+02 0.456E+00 0.857E+00 0.105E+00 0.125E-03 0.487E-03 0.838E-01 0.163E+02 0.331E-01 0.100E-11 .37935E-02 0.466E+02 0.137E+01 0.000E+00 0.000E+00 0.000E+00
BIGSUB   2        0   17.84750E-01 0.323E+02 0.000E+00 0.294E+01 0.286E+01 0.943E+02 0.120E+01 0.817E+01 0.000E+00 0.244E+02 0.427E+00 0.839E+00 0.103E+00 0.134E-03 0.508E-03 0.820E-01 0.162E+02 0.312E-01 0.100E-11 .37463E-02 0.445E+02 0.137E+01 0.000E+00 0.000E+00 0.000E+00
BIGSUB   3        0   17.42478E-01 0.323E+02 0.000E+00 0.294E+01 0.286E+01 0.943E+02 0.146E+01 0.815E+01 0.821E-01 0.243E+02 0.346E+00 0.805E+00 0.985E-01 0.103E-03 0.517E-03 0.785E-01 0.160E+02 0.300E-01 0.498E-05 .36318E-02 0.383E+02 0.135E+01 0.000E+00 0.000E+00 0.000E+00
BIGSUB   4        0   17.68128E-01 0.323E+02 0.000E+00 0.294E+01 0.285E+01 0.943E+02 0.115E+01 0.839E+01 0.196E-01 0.245E+02 0.421E+00 0.805E+00 0.983E-01 0.191E-03 0.630E-03 0.787E-01 0.161E+02 0.322E-01 0.681E-06 .35678E-02 0.433E+02 0.140E+01 0.000E+00 0.000E+00 0.000E+00
BIGSUB   5        0   17.44632E-01 0.323E+02 0.000E+00 0.294E+01 0.286E+01 0.103E+03 0.240E+01 0.750E+01 0.377E+00 0.236E+02 0.401E+00 0.771E+00 0.942E-01 0.133E-03 0.506E-03 0.753E-01 0.157E+02 0.337E-01 0.184E-03 .33292E-02 0.408E+02 0.136E+01 0.000E+00 0.000E+00 0.000E+00
BIGSUB   6        0   17.85263E-01 0.323E+02 0.000E+00 0.294E+01 0.286E+01 0.101E+03 0.361E+01 0.753E+01 0.715E+00 0.230E+02 0.233E+00 0.694E+00 0.850E-01 0.850E-04 0.533E-03 0.673E-01 0.147E+02 0.253E-01 0.232E-03 .31932E-02 0.281E+02 0.129E+01 0.000E+00 0.000E+00 0.000E+00
BIGSUB   7        0   17.43914E-01 0.323E+02 0.000E+00 0.294E+01 0.286E+01 0.943E+02 0.180E+01 0.829E+01 0.162E+00 0.241E+02 0.292E+00 0.758E+00 0.928E-01 0.138E-03 0.615E-03 0.737E-01 0.157E+02 0.289E-01 0.141E-04 .34741E-02 0.336E+02 0.135E+01 0.000E+00 0.000E+00 0.000E+00
BIGSUB   8        0   17.34680E-01 0.323E+02 0.000E+00 0.294E+01 0.286E+01 0.943E+02 0.155E+01 0.839E+01 0.160E+00 0.243E+02 0.333E+00 0.792E+00 0.968E-01 0.122E-03 0.549E-03 0.771E-01 0.157E+02 0.297E-01 0.155E-04 .38862E-02 0.394E+02 0.134E+01 0.000E+00 0.000E+00 0.000E+00
BIGSUB   9        0   17.21649E-01 0.323E+02 0.000E+00 0.294E+01 0.286E+01 0.128E+03 0.906E+01 0.517E+01 0.212E+01 0.192E+02 0.137E+00 0.445E+00 0.545E-01 0.813E-04 0.464E-03 0.428E-01 0.118E+02 0.185E-01 0.110E-02 .17852E-02 0.157E+02 0.119E+01 0.000E+00 0.000E+00 0.000E+00
BIGSUB  10        0   17.10773E-01 0.323E+02 0.000E+00 0.294E+01 0.286E+01 0.147E+03 0.136E+02 0.420E+01 0.333E+01 0.165E+02 0.904E-01 0.311E+00 0.380E-01 0.597E-04 0.470E-03 0.296E-01 0.882E+01 0.127E-01 0.186E-02 .14987E-02 0.100E+02 0.103E+01 0.000E+00 0.000E+00 0.000E+00
BIGSUB  11        0   17.26677E-01 0.323E+02 0.000E+00 0.294E+01 0.281E+01 0.128E+03 0.920E+01 0.658E+01 0.218E+01 0.196E+02 0.820E-01 0.347E+00 0.425E-01 0.313E-03 0.103E-02 0.334E-01 0.107E+02 0.167E-01 0.975E-03 .15857E-02 0.105E+02 0.126E+01 0.000E+00 0.000E+00 0.000E+00
BIGSUB   1        0   18.72643E-01 0.250E+01 0.000E+00 0.254E+01 0.248E+01 0.937E+02 0.000E+00 0.100E-05 0.000E+00 0.608E+01 0.138E-09 0.100E-08 0.100E-08 0.100E-08 0.100E-08 0.200E-08 0.607E+01 0.114E-01 0.100E-11 .21674E-23 0.000E+00 0.501E+00 0.000E+00 0.000E+00 0.000E+00
BIGSUB   2        0   18.84750E-01 0.250E+01 0.000E+00 0.254E+01 0.248E+01 0.937E+02 0.000E+00 0.100E-05 0.000E+00 0.602E+01 0.236E-09 0.100E-08 0.100E-08 0.100E-08 0.100E-08 0.200E-08 0.602E+01 0.107E-01 0.100E-11 .22057E-23 0.000E+00 0.497E+00 0.000E+00 0.000E+00 0.000E+00
BIGSUB   3        0   18.42478E-01 0.250E+01 0.000E+00 0.254E+01 0.248E+01 0.937E+02 0.000E+00 0.100E-05 0.953E-01 0.603E+01 0.235E-09 0.100E-08 0.100E-08 0.100E-08 0.100E-08 0.200E-08 0.593E+01 0.103E-01 0.619E-05 .21984E-23 0.000E+00 0.498E+00 0.000E+00 0.000E+00 0.000E+00
BIGSUB   4        0   18.68128E-01 0.250E+01 0.000E+00 0.254E+01 0.247E+01 0.937E+02 0.000E+00 0.100E-05 0.204E-01 0.601E+01 0.294E-09 0.100E-08 0.100E-08 0.100E-08 0.100E-08 0.200E-08 0.598E+01 0.111E-01 0.769E-06 .22323E-23 0.000E+00 0.496E+00 0.000E+00 0.000E+00 0.000E+00
BIGSUB   5        0   18.44632E-01 0.250E+01 0.000E+00 0.254E+01 0.248E+01 0.102E+03 0.000E+00 0.635E-04 0.385E+00 0.642E+01 0.134E-08 0.250E-08 0.109E-08 0.709E-08 0.202E-07 0.200E-08 0.601E+01 0.118E-01 0.191E-03 .70800E-14 0.000E+00 0.530E+00 0.000E+00 0.000E+00 0.000E+00
BIGSUB   6        0   18.85263E-01 0.250E+01 0.000E+00 0.254E+01 0.250E+01 0.101E+03 0.000E+00 0.274E-04 0.734E+00 0.632E+01 0.469E-09 0.853E-06 0.105E-06 0.132E-08 0.557E-08 0.795E-07 0.556E+01 0.889E-02 0.242E-03 .42689E-12 0.000E+00 0.522E+00 0.000E+00 0.000E+00 0.000E+00
BIGSUB   7        0   18.43914E-01 0.250E+01 0.000E+00 0.254E+01 0.249E+01 0.937E+02 0.000E+00 0.100E-05 0.177E+00 0.597E+01 0.455E-09 0.100E-08 0.100E-08 0.100E-08 0.100E-08 0.200E-08 0.578E+01 0.995E-02 0.163E-04 .22580E-23 0.000E+00 0.492E+00 0.000E+00 0.000E+00 0.000E+00
BIGSUB   8        0   18.34680E-01 0.250E+01 0.000E+00 0.254E+01 0.249E+01 0.936E+02 0.000E+00 0.140E-02 0.171E+00 0.601E+01 0.114E-08 0.168E-04 0.206E-05 0.217E-06 0.202E-06 0.156E-05 0.583E+01 0.102E-01 0.171E-04 .14491E-08 0.000E+00 0.496E+00 0.000E+00 0.000E+00 0.000E+00
BIGSUB   9        0   18.21649E-01 0.250E+01 0.000E+00 0.254E+01 0.251E+01 0.128E+03 0.000E+00 0.156E-05 0.216E+01 0.749E+01 0.139E-08 0.666E-07 0.877E-08 0.100E-08 0.100E-08 0.710E-08 0.525E+01 0.727E-02 0.114E-02 .15095E-21 0.000E+00 0.619E+00 0.000E+00 0.000E+00 0.000E+00
BIGSUB  10        0   18.10773E-01 0.250E+01 0.000E+00 0.254E+01 0.251E+01 0.147E+03 0.000E+00 0.174E-02 0.340E+01 0.799E+01 0.371E-08 0.832E-04 0.102E-04 0.194E-07 0.227E-06 0.770E-05 0.446E+01 0.562E-02 0.192E-02 .16648E-10 0.000E+00 0.660E+00 0.000E+00 0.000E+00 0.000E+00
BIGSUB  11        0   18.26677E-01 0.250E+01 0.000E+00 0.254E+01 0.246E+01 0.128E+03 0.349E-02 0.123E-01 0.223E+01 0.700E+01 0.405E-08 0.255E-04 0.313E-05 0.957E-06 0.395E-05 0.232E-05 0.468E+01 0.674E-02 0.101E-02 .11142E-08 0.000E+00 0.578E+00 0.000E+00 0.000E+00 0.000E+00
BIGSUB   1        0   19.72643E-01 0.107E+02 0.000E+00 0.222E+01 0.221E+01 0.950E+02 0.151E+00 0.677E-01 0.000E+00 0.672E+01 0.464E-02 0.821E-02 0.100E-02 0.405E-05 0.395E-05 0.803E-03 0.665E+01 0.898E-02 0.100E-11 .33303E-07 0.137E-01 0.554E+00 0.000E+00 0.000E+00 0.000E+00
BIGSUB   2        0   19.84750E-01 0.107E+02 0.000E+00 0.222E+01 0.221E+01 0.950E+02 0.187E+00 0.714E-01 0.000E+00 0.669E+01 0.436E-02 0.806E-02 0.984E-03 0.658E-05 0.496E-05 0.787E-03 0.661E+01 0.880E-02 0.100E-11 .34067E-07 0.131E-01 0.552E+00 0.000E+00 0.000E+00 0.000E+00
BIGSUB   3        0   19.42478E-01 0.107E+02 0.000E+00 0.222E+01 0.221E+01 0.950E+02 0.264E+00 0.681E-01 0.108E+00 0.673E+01 0.356E-02 0.778E-02 0.951E-03 0.345E-05 0.422E-05 0.758E-03 0.655E+01 0.889E-02 0.740E-05 .31821E-07 0.112E-01 0.555E+00 0.000E+00 0.000E+00 0.000E+00
BIGSUB   4        0   19.68128E-01 0.107E+02 0.000E+00 0.222E+01 0.220E+01 0.950E+02 0.188E+00 0.101E+00 0.212E-01 0.672E+01 0.429E-02 0.770E-02 0.941E-03 0.203E-04 0.126E-04 0.753E-03 0.659E+01 0.895E-02 0.855E-06 .37604E-07 0.127E-01 0.554E+00 0.000E+00 0.000E+00 0.000E+00
BIGSUB   5        0   19.44632E-01 0.107E+02 0.000E+00 0.223E+01 0.221E+01 0.103E+03 0.521E+00 0.639E-01 0.392E+00 0.692E+01 0.406E-02 0.722E-02 0.882E-03 0.596E-05 0.486E-05 0.706E-03 0.644E+01 0.895E-02 0.197E-03 .30115E-07 0.119E-01 0.571E+00 0.000E+00 0.000E+00 0.000E+00
BIGSUB   6        0   19.85263E-01 0.107E+02 0.000E+00 0.223E+01 0.221E+01 0.102E+03 0.883E+00 0.620E-01 0.751E+00 0.695E+01 0.240E-02 0.665E-02 0.814E-03 0.289E-05 0.416E-05 0.645E-03 0.611E+01 0.842E-02 0.252E-03 .27183E-07 0.816E-02 0.575E+00 0.000E+00 0.000E+00 0.000E+00
BIGSUB   7        0   19.43914E-01 0.107E+02 0.000E+00 0.223E+01 0.221E+01 0.950E+02 0.373E+00 0.876E-01 0.191E+00 0.673E+01 0.301E-02 0.736E-02 0.901E-03 0.130E-04 0.935E-05 0.716E-03 0.644E+01 0.901E-02 0.184E-04 .34210E-07 0.988E-02 0.555E+00 0.000E+00 0.000E+00 0.000E+00
BIGSUB   8        0   19.34680E-01 0.107E+02 0.000E+00 0.223E+01 0.221E+01 0.949E+02 0.298E+00 0.133E+00 0.181E+00 0.678E+01 0.716E-02 0.112E-01 0.136E-02 0.119E-04 0.771E-05 0.110E-02 0.645E+01 0.889E-02 0.186E-04 .58684E-04 0.745E+00 0.554E+00 0.000E+00 0.000E+00 0.000E+00
BIGSUB   9        0   19.21649E-01 0.107E+02 0.000E+00 0.223E+01 0.221E+01 0.129E+03 0.236E+01 0.402E-01 0.220E+01 0.762E+01 0.131E-02 0.368E-02 0.450E-03 0.557E-05 0.388E-05 0.357E-03 0.528E+01 0.646E-02 0.118E-02 .16572E-07 0.449E-02 0.631E+00 0.000E+00 0.000E+00 0.000E+00
BIGSUB  10        0   19.10773E-01 0.107E+02 0.000E+00 0.223E+01 0.222E+01 0.148E+03 0.382E+01 0.265E-01 0.345E+01 0.783E+01 0.721E-03 0.174E-02 0.213E-03 0.163E-05 0.244E-05 0.169E-03 0.421E+01 0.461E-02 0.197E-02 .70452E-08 0.233E-02 0.650E+00 0.000E+00 0.000E+00 0.000E+00
BIGSUB  11        0   19.26677E-01 0.107E+02 0.000E+00 0.223E+01 0.217E+01 0.129E+03 0.273E+01 0.112E+00 0.227E+01 0.731E+01 0.789E-03 0.305E-02 0.373E-03 0.374E-04 0.242E-04 0.295E-03 0.485E+01 0.652E-02 0.105E-02 .30737E-07 0.299E-02 0.606E+00 0.000E+00 0.000E+00 0.000E+00
BIGSUB   1        0   20.72643E-01 0.860E+01 0.000E+00 0.457E+01 0.387E+01 0.933E+02 0.295E+00 0.100E-05 0.000E+00 0.629E+01 0.138E-09 0.100E-08 0.100E-08 0.100E-08 0.100E-08 0.200E-08 0.629E+01 0.106E-01 0.100E-11 .20220E-23 0.000E+00 0.519E+00 0.000E+00 0.000E+00 0.000E+00
BIGSUB   2        0   20.84750E-01 0.860E+01 0.000E+00 0.456E+01 0.386E+01 0.933E+02 0.331E+00 0.142E-02 0.000E+00 0.626E+01 0.236E-09 0.100E-08 0.100E-08 0.101E-05 0.354E-06 0.200E-08 0.625E+01 0.102E-01 0.100E-11 .54110E-10 0.000E+00 0.516E+00 0.000E+00 0.000E+00 0.000E+00
BIGSUB   3        0   20.42478E-01 0.860E+01 0.000E+00 0.457E+01 0.387E+01 0.933E+02 0.408E+00 0.100E-05 0.120E+00 0.631E+01 0.235E-09 0.100E-08 0.100E-08 0.100E-08 0.100E-08 0.200E-08 0.618E+01 0.100E-01 0.860E-05 .20115E-23 0.000E+00 0.521E+00 0.000E+00 0.000E+00 0.000E+00
BIGSUB   4        0   20.68128E-01 0.860E+01 0.000E+00 0.457E+01 0.385E+01 0.933E+02 0.328E+00 0.134E-01 0.219E-01 0.628E+01 0.294E-09 0.100E-08 0.100E-08 0.613E-05 0.313E-05 0.200E-08 0.624E+01 0.105E-01 0.940E-06 .34847E-09 0.000E+00 0.519E+00 0.000E+00 0.000E+00 0.000E+00
BIGSUB   5        0   20.44632E-01 0.860E+01 0.000E+00 0.456E+01 0.386E+01 0.102E+03 0.596E+00 0.168E-02 0.398E+00 0.646E+01 0.134E-08 0.100E-08 0.100E-08 0.756E-06 0.492E-06 0.200E-08 0.605E+01 0.107E-01 0.202E-03 .56660E-10 0.000E+00 0.534E+00 0.000E+00 0.000E+00 0.000E+00
BIGSUB   6        0   20.85263E-01 0.860E+01 0.000E+00 0.456E+01 0.386E+01 0.100E+03 0.943E+00 0.128E-05 0.767E+00 0.650E+01 0.469E-09 0.100E-08 0.100E-08 0.102E-08 0.105E-08 0.200E-08 0.570E+01 0.883E-02 0.260E-03 .12839E-20 0.000E+00 0.536E+00 0.000E+00 0.000E+00 0.000E+00
BIGSUB   7        0   20.43914E-01 0.860E+01 0.000E+00 0.456E+01 0.386E+01 0.933E+02 0.508E+00 0.765E-02 0.204E+00 0.629E+01 0.455E-09 0.100E-08 0.100E-08 0.370E-05 0.181E-05 0.200E-08 0.607E+01 0.987E-02 0.204E-04 .21530E-09 0.000E+00 0.519E+00 0.000E+00 0.000E+00 0.000E+00
BIGSUB   8        0   20.34680E-01 0.860E+01 0.000E+00 0.456E+01 0.386E+01 0.933E+02 0.433E+00 0.429E-01 0.191E+00 0.633E+01 0.114E-08 0.132E-02 0.161E-03 0.732E-05 0.199E-05 0.133E-03 0.609E+01 0.998E-02 0.200E-04 .14225E-04 0.546E-07 0.523E+00 0.000E+00 0.000E+00 0.000E+00
BIGSUB   9        0   20.21649E-01 0.860E+01 0.000E+00 0.455E+01 0.386E+01 0.127E+03 0.212E+01 0.222E-02 0.224E+01 0.713E+01 0.139E-08 0.100E-08 0.100E-08 0.150E-05 0.562E-06 0.200E-08 0.479E+01 0.662E-02 0.120E-02 .81691E-10 0.000E+00 0.588E+00 0.000E+00 0.000E+00 0.000E+00
BIGSUB  10        0   20.10773E-01 0.860E+01 0.000E+00 0.455E+01 0.386E+01 0.146E+03 0.328E+01 0.196E-04 0.351E+01 0.738E+01 0.371E-08 0.111E-08 0.100E-08 0.182E-08 0.329E-08 0.200E-08 0.374E+01 0.465E-02 0.202E-02 .27296E-19 0.000E+00 0.609E+00 0.000E+00 0.000E+00 0.000E+00
BIGSUB  11        0   20.26677E-01 0.860E+01 0.000E+00 0.455E+01 0.380E+01 0.127E+03 0.242E+01 0.282E-01 0.231E+01 0.684E+01 0.405E-08 0.132E-08 0.101E-08 0.121E-04 0.766E-05 0.200E-08 0.442E+01 0.640E-02 0.108E-02 .91379E-09 0.000E+00 0.565E+00 0.000E+00 0.000E+00 0.000E+00
BIGSUB   1        0   21.72643E-01 0.180E+01 0.000E+00 0.444E+01 0.322E+01 0.916E+02 0.000E+00 0.100E-05 0.000E+00 0.240E+01 0.138E-09 0.100E-08 0.100E-08 0.100E-08 0.100E-08 0.200E-08 0.240E+01 0.368E-02 0.100E-11 .13869E-22 0.000E+00 0.199E+00 0.000E+00 0.000E+00 0.000E+00
BIGSUB   2        0   21.84750E-01 0.180E+01 0.000E+00 0.444E+01 0.322E+01 0.916E+02 0.000E+00 0.100E-05 0.000E+00 0.238E+01 0.236E-09 0.100E-08 0.100E-08 0.100E-08 0.100E-08 0.200E-08 0.238E+01 0.353E-02 0.100E-11 .14073E-22 0.000E+00 0.197E+00 0.000E+00 0.000E+00 0.000E+00
BIGSUB   3        0   21.42478E-01 0.180E+01 0.000E+00 0.444E+01 0.323E+01 0.916E+02 0.000E+00 0.100E-05 0.130E+00 0.248E+01 0.235E-09 0.100E-08 0.100E-08 0.100E-08 0.100E-08 0.200E-08 0.234E+01 0.346E-02 0.969E-05 .12992E-22 0.000E+00 0.205E+00 0.000E+00 0.000E+00 0.000E+00
BIGSUB   4        0   21.68128E-01 0.180E+01 0.000E+00 0.444E+01 0.321E+01 0.916E+02 0.000E+00 0.100E-05 0.226E-01 0.241E+01 0.294E-09 0.100E-08 0.100E-08 0.100E-08 0.100E-08 0.200E-08 0.238E+01 0.364E-02 0.101E-05 .13822E-22 0.000E+00 0.199E+00 0.000E+00 0.000E+00 0.000E+00
BIGSUB   5        0   21.44632E-01 0.180E+01 0.000E+00 0.445E+01 0.324E+01 0.999E+02 0.000E+00 0.223E-05 0.403E+00 0.280E+01 0.134E-08 0.100E-08 0.100E-08 0.150E-08 0.137E-08 0.200E-08 0.238E+01 0.378E-02 0.205E-03 .22954E-18 0.000E+00 0.232E+00 0.000E+00 0.000E+00 0.000E+00
BIGSUB   6        0   21.85263E-01 0.180E+01 0.000E+00 0.445E+01 0.326E+01 0.986E+02 0.000E+00 0.100E-05 0.781E+00 0.302E+01 0.469E-09 0.100E-08 0.100E-08 0.100E-08 0.100E-08 0.200E-08 0.221E+01 0.312E-02 0.266E-03 .10201E-22 0.000E+00 0.250E+00 0.000E+00 0.000E+00 0.000E+00
BIGSUB   7        0   21.43914E-01 0.180E+01 0.000E+00 0.444E+01 0.323E+01 0.916E+02 0.000E+00 0.100E-05 0.216E+00 0.252E+01 0.455E-09 0.100E-08 0.100E-08 0.100E-08 0.100E-08 0.200E-08 0.229E+01 0.341E-02 0.222E-04 .12606E-22 0.000E+00 0.208E+00 0.000E+00 0.000E+00 0.000E+00
BIGSUB   8        0   21.34680E-01 0.180E+01 0.000E+00 0.445E+01 0.323E+01 0.915E+02 0.000E+00 0.133E-05 0.200E+00 0.252E+01 0.114E-08 0.185E-08 0.110E-08 0.101E-08 0.107E-08 0.207E-08 0.231E+01 0.344E-02 0.212E-04 .11659E-19 0.000E+00 0.208E+00 0.000E+00 0.000E+00 0.000E+00
BIGSUB   9        0   21.21649E-01 0.180E+01 0.000E+00 0.445E+01 0.332E+01 0.125E+03 0.000E+00 0.100E-05 0.227E+01 0.455E+01 0.139E-08 0.100E-08 0.100E-08 0.100E-08 0.100E-08 0.200E-08 0.219E+01 0.267E-02 0.122E-02 .72796E-23 0.000E+00 0.376E+00 0.000E+00 0.000E+00 0.000E+00
BIGSUB  10        0   21.10773E-01 0.180E+01 0.000E+00 0.445E+01 0.337E+01 0.145E+03 0.000E+00 0.100E-05 0.355E+01 0.564E+01 0.371E-08 0.100E-08 0.100E-08 0.100E-08 0.100E-08 0.200E-08 0.195E+01 0.217E-02 0.205E-02 .45810E-23 0.000E+00 0.467E+00 0.000E+00 0.000E+00 0.000E+00
BIGSUB  11        0   21.26677E-01 0.180E+01 0.000E+00 0.445E+01 0.329E+01 0.126E+03 0.000E+00 0.233E-03 0.234E+01 0.441E+01 0.405E-08 0.999E-09 0.999E-09 0.953E-07 0.819E-07 0.200E-08 0.198E+01 0.266E-02 0.110E-02 .10126E-12 0.000E+00 0.365E+00 0.000E+00 0.000E+00 0.000E+00
BIGSUB   1        0   22.72643E-01 0.810E+01 0.000E+00 0.436E+01 0.372E+01 0.925E+02 0.000E+00 0.100E-05 0.000E+00 0.311E+01 0.138E-09 0.100E-08 0.100E-08 0.100E-08 0.100E-08 0.200E-08 0.311E+01 0.145E-02 0.100E-11 .82644E-23 0.000E+00 0.259E+00 0.000E+00 0.000E+00 0.000E+00
BIGSUB   2        0   22.84750E-01 0.810E+01 0.000E+00 0.436E+01 0.372E+01 0.925E+02 0.000E+00 0.739E-03 0.000E+00 0.308E+01 0.236E-09 0.100E-08 0.100E-08 0.704E-06 0.185E-06 0.200E-08 0.307E+01 0.144E-02 0.100E-11 .38190E-10 0.000E+00 0.256E+00 0.000E+00 0.000E+00 0.000E+00
BIGSUB   3        0   22.42478E-01 0.810E+01 0.000E+00 0.436E+01 0.372E+01 0.926E+02 0.000E+00 0.100E-05 0.140E+00 0.315E+01 0.235E-09 0.100E-08 0.100E-08 0.100E-08 0.100E-08 0.200E-08 0.300E+01 0.145E-02 0.107E-04 .80813E-23 0.000E+00 0.261E+00 0.000E+00 0.000E+00 0.000E+00
BIGSUB   4        0   22.68128E-01 0.810E+01 0.000E+00 0.436E+01 0.371E+01 0.925E+02 0.000E+00 0.699E-02 0.232E-01 0.312E+01 0.294E-09 0.100E-08 0.100E-08 0.452E-05 0.164E-05 0.200E-08 0.308E+01 0.150E-02 0.107E-05 .25509E-09 0.000E+00 0.259E+00 0.000E+00 0.000E+00 0.000E+00
BIGSUB   5        0   22.44632E-01 0.810E+01 0.000E+00 0.436E+01 0.372E+01 0.101E+03 0.785E-01 0.977E-03 0.407E+00 0.344E+01 0.134E-08 0.100E-08 0.100E-08 0.679E-06 0.290E-06 0.200E-08 0.301E+01 0.155E-02 0.207E-03 .30746E-10 0.000E+00 0.286E+00 0.000E+00 0.000E+00 0.000E+00
BIGSUB   6        0   22.85263E-01 0.810E+01 0.000E+00 0.436E+01 0.374E+01 0.100E+03 0.764E-01 0.100E-05 0.792E+00 0.351E+01 0.469E-09 0.100E-08 0.100E-08 0.100E-08 0.100E-08 0.200E-08 0.269E+01 0.147E-02 0.270E-03 .70718E-23 0.000E+00 0.291E+00 0.000E+00 0.000E+00 0.000E+00
BIGSUB   7        0   22.43914E-01 0.810E+01 0.000E+00 0.436E+01 0.372E+01 0.927E+02 0.000E+00 0.399E-02 0.226E+00 0.315E+01 0.455E-09 0.100E-08 0.100E-08 0.270E-05 0.951E-06 0.200E-08 0.291E+01 0.150E-02 0.238E-04 .16494E-09 0.000E+00 0.262E+00 0.000E+00 0.000E+00 0.000E+00
BIGSUB   8        0   22.34680E-01 0.810E+01 0.000E+00 0.436E+01 0.372E+01 0.926E+02 0.771E-02 0.365E-01 0.208E+00 0.321E+01 0.743E-03 0.887E-03 0.108E-03 0.825E-05 0.157E-05 0.893E-04 0.295E+01 0.145E-02 0.221E-04 .14476E-04 0.181E+00 0.263E+00 0.000E+00 0.000E+00 0.000E+00
BIGSUB   9        0   22.21649E-01 0.810E+01 0.000E+00 0.436E+01 0.373E+01 0.127E+03 0.510E+00 0.116E-02 0.230E+01 0.478E+01 0.139E-08 0.100E-08 0.100E-08 0.105E-05 0.294E-06 0.200E-08 0.238E+01 0.149E-02 0.123E-02 .58944E-10 0.000E+00 0.397E+00 0.000E+00 0.000E+00 0.000E+00
BIGSUB  10        0   22.10773E-01 0.810E+01 0.000E+00 0.436E+01 0.374E+01 0.146E+03 0.977E+00 0.100E-05 0.359E+01 0.569E+01 0.371E-08 0.100E-08 0.100E-08 0.100E-08 0.100E-08 0.200E-08 0.196E+01 0.139E-02 0.206E-02 .33609E-23 0.000E+00 0.473E+00 0.000E+00 0.000E+00 0.000E+00
BIGSUB  11        0   22.26677E-01 0.810E+01 0.000E+00 0.436E+01 0.368E+01 0.127E+03 0.634E+00 0.156E-01 0.236E+01 0.464E+01 0.405E-08 0.999E-09 0.999E-09 0.103E-04 0.428E-05 0.200E-08 0.217E+01 0.174E-02 0.111E-02 .45747E-09 0.000E+00 0.386E+00 0.000E+00 0.000E+00 0.000E+00
BIGSUB   1        0   23.72643E-01 0.000E+00 0.000E+00 0.418E+01 0.216E+01 0.903E+02 0.000E+00 0.100E-05 0.000E+00 0.107E+01 0.138E-09 0.100E-08 0.100E-08 0.100E-08 0.100E-08 0.200E-08 0.107E+01 0.499E-03 0.100E-11 .69648E-22 0.000E+00 0.885E-01 0.000E+00 0.000E+00 0.000E+00
BIGSUB   2        0   23.84750E-01 0.000E+00 0.000E+00 0.418E+01 0.217E+01 0.903E+02 0.000E+00 0.100E-05 0.000E+00 0.106E+01 0.236E-09 0.100E-08 0.100E-08 0.100E-08 0.100E-08 0.200E-08 0.106E+01 0.494E-03 0.100E-11 .71140E-22 0.000E+00 0.875E-01 0.000E+00 0.000E+00 0.000E+00
BIGSUB   3        0   23.42478E-01 0.000E+00 0.000E+00 0.418E+01 0.217E+01 0.904E+02 0.000E+00 0.100E-05 0.149E+00 0.119E+01 0.235E-09 0.100E-08 0.100E-08 0.100E-08 0.100E-08 0.200E-08 0.103E+01 0.497E-03 0.115E-04 .56799E-22 0.000E+00 0.980E-01 0.000E+00 0.000E+00 0.000E+00
BIGSUB   4        0   23.68128E-01 0.000E+00 0.000E+00 0.418E+01 0.216E+01 0.904E+02 0.000E+00 0.100E-05 0.237E-01 0.109E+01 0.294E-09 0.100E-08 0.100E-08 0.100E-08 0.100E-08 0.200E-08 0.106E+01 0.515E-03 0.112E-05 .68259E-22 0.000E+00 0.897E-01 0.000E+00 0.000E+00 0.000E+00
BIGSUB   5        0   23.44632E-01 0.000E+00 0.000E+00 0.418E+01 0.218E+01 0.987E+02 0.000E+00 0.174E-05 0.411E+00 0.151E+01 0.134E-08 0.100E-08 0.100E-08 0.150E-08 0.123E-08 0.200E-08 0.108E+01 0.569E-03 0.208E-03 .86101E-19 0.000E+00 0.124E+00 0.000E+00 0.000E+00 0.000E+00
BIGSUB   6        0   23.85263E-01 0.000E+00 0.000E+00 0.418E+01 0.220E+01 0.978E+02 0.000E+00 0.100E-05 0.802E+00 0.179E+01 0.469E-09 0.100E-08 0.100E-08 0.100E-08 0.100E-08 0.200E-08 0.959E+00 0.534E-03 0.272E-03 .35375E-22 0.000E+00 0.148E+00 0.000E+00 0.000E+00 0.000E+00
BIGSUB   7        0   23.43914E-01 0.000E+00 0.000E+00 0.418E+01 0.217E+01 0.906E+02 0.000E+00 0.100E-05 0.236E+00 0.125E+01 0.455E-09 0.100E-08 0.100E-08 0.100E-08 0.100E-08 0.200E-08 0.100E+01 0.514E-03 0.250E-04 .51546E-22 0.000E+00 0.103E+00 0.000E+00 0.000E+00 0.000E+00
BIGSUB   8        0   23.34680E-01 0.000E+00 0.000E+00 0.418E+01 0.217E+01 0.904E+02 0.000E+00 0.100E-05 0.215E+00 0.124E+01 0.114E-08 0.100E-08 0.100E-08 0.100E-08 0.100E-08 0.200E-08 0.101E+01 0.499E-03 0.229E-04 .56833E-22 0.000E+00 0.102E+00 0.000E+00 0.000E+00 0.000E+00
BIGSUB   9        0   23.21649E-01 0.000E+00 0.000E+00 0.418E+01 0.225E+01 0.125E+03 0.000E+00 0.100E-05 0.232E+01 0.345E+01 0.139E-08 0.100E-08 0.100E-08 0.100E-08 0.100E-08 0.200E-08 0.104E+01 0.690E-03 0.123E-02 .27401E-22 0.000E+00 0.285E+00 0.000E+00 0.000E+00 0.000E+00
BIGSUB  10        0   23.10773E-01 0.000E+00 0.000E+00 0.418E+01 0.229E+01 0.144E+03 0.000E+00 0.100E-05 0.361E+01 0.476E+01 0.371E-08 0.100E-08 0.100E-08 0.100E-08 0.100E-08 0.200E-08 0.100E+01 0.767E-03 0.207E-02 .17630E-22 0.000E+00 0.393E+00 0.000E+00 0.000E+00 0.000E+00
BIGSUB  11        0   23.26677E-01 0.000E+00 0.000E+00 0.418E+01 0.222E+01 0.125E+03 0.000E+00 0.115E-03 0.239E+01 0.342E+01 0.405E-08 0.999E-09 0.999E-09 0.775E-07 0.411E-07 0.200E-08 0.943E+00 0.818E-03 0.112E-02 .17683E-13 0.000E+00 0.282E+00 0.000E+00 0.000E+00 0.000E+00
BIGSUB   1        0   24.72643E-01 0.000E+00 0.000E+00 0.475E+01 0.191E+01 0.884E+02 0.000E+00 0.100E-05 0.000E+00 0.371E+00 0.138E-09 0.100E-08 0.100E-08 0.100E-08 0.100E-08 0.200E-08 0.367E+00 0.171E-03 0.100E-11 .58084E-21 0.000E+00 0.308E-01 0.000E+00 0.000E+00 0.000E+00
BIGSUB   2        0   24.84750E-01 0.000E+00 0.000E+00 0.475E+01 0.191E+01 0.884E+02 0.000E+00 0.100E-05 0.000E+00 0.368E+00 0.236E-09 0.100E-08 0.100E-08 0.100E-08 0.100E-08 0.200E-08 0.362E+00 0.170E-03 0.100E-11 .59091E-21 0.000E+00 0.306E-01 0.000E+00 0.000E+00 0.000E+00
BIGSUB   3        0   24.42478E-01 0.000E+00 0.000E+00 0.475E+01 0.191E+01 0.885E+02 0.000E+00 0.100E-05 0.157E+00 0.519E+00 0.235E-09 0.100E-08 0.100E-08 0.100E-08 0.100E-08 0.200E-08 0.354E+00 0.171E-03 0.122E-04 .29752E-21 0.000E+00 0.431E-01 0.000E+00 0.000E+00 0.000E+00
BIGSUB   4        0   24.68128E-01 0.000E+00 0.000E+00 0.475E+01 0.191E+01 0.884E+02 0.000E+00 0.100E-05 0.241E-01 0.393E+00 0.294E-09 0.100E-08 0.100E-08 0.100E-08 0.100E-08 0.200E-08 0.364E+00 0.177E-03 0.115E-05 .55643E-21 0.000E+00 0.326E-01 0.000E+00 0.000E+00 0.000E+00
BIGSUB   5        0   24.44632E-01 0.000E+00 0.000E+00 0.475E+01 0.193E+01 0.968E+02 0.000E+00 0.100E-05 0.413E+00 0.825E+00 0.134E-08 0.100E-08 0.100E-08 0.100E-08 0.100E-08 0.200E-08 0.393E+00 0.215E-03 0.208E-03 .50244E-21 0.000E+00 0.686E-01 0.000E+00 0.000E+00 0.000E+00
BIGSUB   6        0   24.85263E-01 0.000E+00 0.000E+00 0.475E+01 0.195E+01 0.958E+02 0.000E+00 0.100E-05 0.810E+00 0.119E+01 0.469E-09 0.100E-08 0.100E-08 0.100E-08 0.100E-08 0.200E-08 0.349E+00 0.199E-03 0.272E-03 .10902E-21 0.000E+00 0.988E-01 0.000E+00 0.000E+00 0.000E+00
BIGSUB   7        0   24.43914E-01 0.000E+00 0.000E+00 0.475E+01 0.192E+01 0.887E+02 0.000E+00 0.100E-05 0.244E+00 0.598E+00 0.455E-09 0.100E-08 0.100E-08 0.100E-08 0.100E-08 0.200E-08 0.343E+00 0.176E-03 0.261E-04 .22360E-21 0.000E+00 0.497E-01 0.000E+00 0.000E+00 0.000E+00
BIGSUB   8        0   24.34680E-01 0.000E+00 0.000E+00 0.475E+01 0.191E+01 0.885E+02 0.000E+00 0.100E-05 0.221E+00 0.578E+00 0.114E-08 0.100E-08 0.100E-08 0.100E-08 0.100E-08 0.200E-08 0.349E+00 0.172E-03 0.235E-04 .28935E-21 0.000E+00 0.481E-01 0.000E+00 0.000E+00 0.000E+00
BIGSUB   9        0   24.21649E-01 0.000E+00 0.000E+00 0.474E+01 0.202E+01 0.123E+03 0.000E+00 0.100E-05 0.234E+01 0.292E+01 0.139E-08 0.100E-08 0.100E-08 0.100E-08 0.100E-08 0.200E-08 0.485E+00 0.342E-03 0.123E-02 .11761E-21 0.000E+00 0.242E+00 0.000E+00 0.000E+00 0.000E+00
BIGSUB  10        0   24.10773E-01 0.000E+00 0.000E+00 0.474E+01 0.207E+01 0.142E+03 0.000E+00 0.100E-05 0.363E+01 0.433E+01 0.371E-08 0.100E-08 0.100E-08 0.100E-08 0.100E-08 0.200E-08 0.552E+00 0.450E-03 0.206E-02 .13417E-21 0.000E+00 0.360E+00 0.000E+00 0.000E+00 0.000E+00
BIGSUB  11        0   24.26677E-01 0.000E+00 0.000E+00 0.474E+01 0.199E+01 0.123E+03 0.000E+00 0.986E-05 0.240E+01 0.293E+01 0.405E-08 0.999E-09 0.999E-09 0.694E-08 0.419E-08 0.200E-08 0.442E+00 0.416E-03 0.112E-02 .13003E-16 0.000E+00 0.244E+00 0.000E+00 0.000E+00 0.000E+00
BIGSUB   1        0   25.72643E-01 0.660E+01 0.000E+00 0.538E+01 0.353E+01 0.889E+02 0.000E+00 0.100E-05 0.000E+00 0.179E+01 0.138E-09 0.100E-08 0.100E-08 0.100E-08 0.100E-08 0.200E-08 0.179E+01 0.228E-03 0.100E-11 .24854E-22 0.000E+00 0.147E+00 0.000E+00 0.000E+00 0.000E+00
BIGSUB   2        0   25.84750E-01 0.660E+01 0.000E+00 0.538E+01 0.355E+01 0.890E+02 0.000E+00 0.131E-04 0.000E+00 0.175E+01 0.236E-09 0.100E-08 0.100E-08 0.251E-07 0.403E-08 0.200E-08 0.175E+01 0.228E-03 0.100E-11 .10976E-14 0.000E+00 0.143E+00 0.000E+00 0.000E+00 0.000E+00
BIGSUB   3        0   25.42478E-01 0.660E+01 0.000E+00 0.538E+01 0.360E+01 0.892E+02 0.000E+00 0.100E-05 0.164E+00 0.184E+01 0.235E-09 0.100E-08 0.100E-08 0.100E-08 0.100E-08 0.200E-08 0.166E+01 0.200E-03 0.128E-04 .23748E-22 0.000E+00 0.150E+00 0.000E+00 0.000E+00 0.000E+00
BIGSUB   4        0   25.68128E-01 0.660E+01 0.000E+00 0.538E+01 0.354E+01 0.890E+02 0.000E+00 0.155E-03 0.245E-01 0.179E+01 0.294E-09 0.100E-08 0.100E-08 0.220E-06 0.375E-07 0.200E-08 0.176E+01 0.253E-03 0.118E-05 .19541E-13 0.000E+00 0.147E+00 0.000E+00 0.000E+00 0.000E+00
BIGSUB   5        0   25.44632E-01 0.660E+01 0.000E+00 0.537E+01 0.357E+01 0.974E+02 0.000E+00 0.588E-04 0.415E+00 0.213E+01 0.134E-08 0.100E-08 0.100E-08 0.884E-07 0.192E-07 0.200E-08 0.170E+01 0.252E-03 0.206E-03 .21406E-13 0.000E+00 0.175E+00 0.000E+00 0.000E+00 0.000E+00
BIGSUB   6        0   25.85263E-01 0.660E+01 0.000E+00 0.537E+01 0.375E+01 0.968E+02 0.000E+00 0.100E-05 0.816E+00 0.221E+01 0.469E-09 0.100E-08 0.100E-08 0.100E-08 0.100E-08 0.200E-08 0.136E+01 0.183E-03 0.271E-03 .19627E-22 0.000E+00 0.181E+00 0.000E+00 0.000E+00 0.000E+00
BIGSUB   7        0   25.43914E-01 0.660E+01 0.000E+00 0.537E+01 0.364E+01 0.894E+02 0.000E+00 0.843E-04 0.251E+00 0.183E+01 0.455E-09 0.100E-08 0.100E-08 0.124E-06 0.210E-07 0.200E-08 0.157E+01 0.207E-03 0.269E-04 .11052E-13 0.000E+00 0.150E+00 0.000E+00 0.000E+00 0.000E+00
BIGSUB   8        0   25.34680E-01 0.660E+01 0.000E+00 0.537E+01 0.360E+01 0.892E+02 0.000E+00 0.217E-01 0.226E+00 0.189E+01 0.557E-03 0.645E-03 0.788E-04 0.103E-04 0.824E-06 0.649E-04 0.163E+01 0.202E-03 0.239E-04 .10031E-04 0.128E+00 0.153E+00 0.000E+00 0.000E+00 0.000E+00
BIGSUB   9        0   25.21649E-01 0.660E+01 0.000E+00 0.537E+01 0.388E+01 0.124E+03 0.000E+00 0.207E-04 0.235E+01 0.355E+01 0.139E-08 0.100E-08 0.100E-08 0.386E-07 0.601E-08 0.200E-08 0.111E+01 0.266E-03 0.122E-02 .19705E-14 0.000E+00 0.291E+00 0.000E+00 0.000E+00 0.000E+00
BIGSUB  10        0   25.10773E-01 0.660E+01 0.000E+00 0.537E+01 0.402E+01 0.143E+03 0.000E+00 0.100E-05 0.365E+01 0.466E+01 0.371E-08 0.100E-08 0.100E-08 0.100E-08 0.100E-08 0.200E-08 0.868E+00 0.335E-03 0.204E-02 .76552E-23 0.000E+00 0.381E+00 0.000E+00 0.000E+00 0.000E+00
BIGSUB  11        0   25.26677E-01 0.660E+01 0.000E+00 0.537E+01 0.391E+01 0.125E+03 0.000E+00 0.772E-03 0.241E+01 0.347E+01 0.405E-08 0.999E-09 0.999E-09 0.112E-05 0.230E-06 0.200E-08 0.966E+00 0.368E-03 0.111E-02 .20634E-12 0.000E+00 0.284E+00 0.000E+00 0.000E+00 0.000E+00
BIGSUB   1        0   26.72643E-01 0.000E+00 0.000E+00 0.499E+01 0.205E+01 0.869E+02 0.000E+00 0.100E-05 0.000E+00 0.619E+00 0.138E-09 0.100E-08 0.100E-08 0.100E-08 0.100E-08 0.200E-08 0.615E+00 0.784E-04 0.100E-11 .20855E-21 0.000E+00 0.507E-01 0.000E+00 0.000E+00 0.000E+00
BIGSUB   2        0   26.84750E-01 0.000E+00 0.000E+00 0.498E+01 0.206E+01 0.869E+02 0.000E+00 0.100E-05 0.000E+00 0.605E+00 0.236E-09 0.100E-08 0.100E-08 0.100E-08 0.100E-08 0.200E-08 0.600E+00 0.783E-04 0.100E-11 .21835E-21 0.000E+00 0.495E-01 0.000E+00 0.000E+00 0.000E+00
BIGSUB   3        0   26.42478E-01 0.000E+00 0.000E+00 0.499E+01 0.208E+01 0.871E+02 0.000E+00 0.100E-05 0.170E+00 0.750E+00 0.235E-09 0.100E-08 0.100E-08 0.100E-08 0.100E-08 0.200E-08 0.572E+00 0.687E-04 0.133E-04 .14236E-21 0.000E+00 0.614E-01 0.000E+00 0.000E+00 0.000E+00
BIGSUB   4        0   26.68128E-01 0.000E+00 0.000E+00 0.499E+01 0.206E+01 0.870E+02 0.000E+00 0.100E-05 0.248E-01 0.635E+00 0.294E-09 0.100E-08 0.100E-08 0.100E-08 0.100E-08 0.200E-08 0.605E+00 0.871E-04 0.120E-05 .20288E-21 0.000E+00 0.520E-01 0.000E+00 0.000E+00 0.000E+00
BIGSUB   5        0   26.44632E-01 0.000E+00 0.000E+00 0.498E+01 0.209E+01 0.953E+02 0.000E+00 0.105E-05 0.416E+00 0.103E+01 0.134E-08 0.100E-08 0.100E-08 0.108E-08 0.102E-08 0.200E-08 0.599E+00 0.934E-04 0.204E-03 .26083E-21 0.000E+00 0.846E-01 0.000E+00 0.000E+00 0.000E+00
BIGSUB   6        0   26.85263E-01 0.000E+00 0.000E+00 0.498E+01 0.217E+01 0.946E+02 0.000E+00 0.100E-05 0.820E+00 0.133E+01 0.469E-09 0.100E-08 0.100E-08 0.100E-08 0.100E-08 0.200E-08 0.480E+00 0.680E-04 0.269E-03 .73710E-22 0.000E+00 0.109E+00 0.000E+00 0.000E+00 0.000E+00
BIGSUB   7        0   26.43914E-01 0.000E+00 0.000E+00 0.498E+01 0.210E+01 0.873E+02 0.000E+00 0.100E-05 0.258E+00 0.809E+00 0.455E-09 0.100E-08 0.100E-08 0.100E-08 0.100E-08 0.200E-08 0.540E+00 0.710E-04 0.274E-04 .12243E-21 0.000E+00 0.662E-01 0.000E+00 0.000E+00 0.000E+00
BIGSUB   8        0   26.34680E-01 0.000E+00 0.000E+00 0.498E+01 0.209E+01 0.871E+02 0.000E+00 0.100E-05 0.230E+00 0.801E+00 0.114E-08 0.100E-08 0.100E-08 0.100E-08 0.100E-08 0.200E-08 0.561E+00 0.698E-04 0.242E-04 .13809E-21 0.000E+00 0.655E-01 0.000E+00 0.000E+00 0.000E+00
BIGSUB   9        0   26.21649E-01 0.000E+00 0.000E+00 0.498E+01 0.230E+01 0.122E+03 0.000E+00 0.100E-05 0.236E+01 0.291E+01 0.139E-08 0.100E-08 0.100E-08 0.100E-08 0.100E-08 0.200E-08 0.456E+00 0.130E-03 0.120E-02 .64071E-22 0.000E+00 0.238E+00 0.000E+00 0.000E+00 0.000E+00
BIGSUB  10        0   26.10773E-01 0.000E+00 0.000E+00 0.498E+01 0.240E+01 0.141E+03 0.000E+00 0.100E-05 0.366E+01 0.423E+01 0.371E-08 0.100E-08 0.100E-08 0.100E-08 0.100E-08 0.200E-08 0.426E+00 0.203E-03 0.201E-02 .49333E-22 0.000E+00 0.346E+00 0.000E+00 0.000E+00 0.000E+00
BIGSUB  11        0   26.26677E-01 0.000E+00 0.000E+00 0.497E+01 0.231E+01 0.122E+03 0.000E+00 0.946E-05 0.242E+01 0.292E+01 0.405E-08 0.999E-09 0.999E-09 0.135E-07 0.400E-08 0.200E-08 0.406E+00 0.193E-03 0.110E-02 .15705E-16 0.000E+00 0.239E+00 0.000E+00 0.000E+00 0.000E+00
BIGSUB   1        0   27.72643E-01 0.840E+01 0.000E+00 0.500E+01 0.350E+01 0.883E+02 0.000E+00 0.100E-05 0.000E+00 0.246E+01 0.138E-09 0.100E-08 0.100E-08 0.100E-08 0.100E-08 0.200E-08 0.245E+01 0.219E-03 0.100E-11 .13259E-22 0.000E+00 0.201E+00 0.000E+00 0.000E+00 0.000E+00
[...]
BIGSUB   6        0  360.85263E-01 0.239E+02 0.000E+00 0.383E+01 0.340E+01 0.101E+03 0.505E+00 0.280E+01 0.350E+00 0.986E+01 0.842E-01 0.183E+00 0.225E-01 0.229E-03 0.111E-03 0.171E-01 0.669E+01 0.375E-02 0.137E-03 .67750E-03 0.916E+01 0.596E+00 0.000E+00 0.000E+00 0.000E+00
BIGSUB   7        0  360.43914E-01 0.239E+02 0.000E+00 0.383E+01 0.340E+01 0.932E+02 0.000E+00 0.318E+01 0.000E+00 0.103E+02 0.102E+00 0.199E+00 0.245E-01 0.306E-03 0.131E-03 0.187E-01 0.715E+01 0.351E-02 0.100E-11 .76005E-03 0.107E+02 0.603E+00 0.000E+00 0.000E+00 0.000E+00
BIGSUB   8        0  360.34680E-01 0.239E+02 0.000E+00 0.383E+01 0.339E+01 0.927E+02 0.282E-01 0.326E+01 0.116E-01 0.105E+02 0.122E+00 0.195E+00 0.240E-01 0.358E-03 0.112E-03 0.184E-01 0.723E+01 0.331E-02 0.546E-05 .70220E-03 0.144E+02 0.612E+00 0.000E+00 0.000E+00 0.000E+00
BIGSUB   9        0  360.21649E-01 0.239E+02 0.000E+00 0.383E+01 0.340E+01 0.127E+03 0.302E+01 0.170E+01 0.145E+01 0.886E+01 0.453E-01 0.109E+00 0.134E-01 0.163E-03 0.839E-04 0.102E-01 0.564E+01 0.400E-02 0.803E-03 .38134E-03 0.486E+01 0.608E+00 0.000E+00 0.000E+00 0.000E+00
BIGSUB  10        0  360.10773E-01 0.239E+02 0.000E+00 0.383E+01 0.340E+01 0.146E+03 0.504E+01 0.129E+01 0.238E+01 0.815E+01 0.279E-01 0.723E-01 0.886E-02 0.125E-03 0.978E-04 0.663E-02 0.438E+01 0.359E-02 0.137E-02 .30202E-03 0.288E+01 0.584E+00 0.000E+00 0.000E+00 0.000E+00
BIGSUB  11        0  360.26677E-01 0.239E+02 0.000E+00 0.383E+01 0.338E+01 0.128E+03 0.287E+01 0.249E+01 0.149E+01 0.907E+01 0.322E-01 0.114E+00 0.140E-01 0.394E-03 0.275E-03 0.106E-01 0.503E+01 0.463E-02 0.736E-03 .54994E-03 0.390E+01 0.568E+00 0.000E+00 0.000E+00 0.000E+00
BIGSUB   1        0  361.72643E-01 0.460E+01 0.000E+00 0.289E+01 0.280E+01 0.928E+02 0.000E+00 0.100E-05 0.000E+00 0.372E+01 0.138E-09 0.100E-08 0.100E-08 0.100E-08 0.100E-08 0.200E-08 0.371E+01 0.103E-02 0.100E-11 .57940E-23 0.000E+00 0.308E+00 0.000E+00 0.000E+00 0.000E+00
BIGSUB   2        0  361.84750E-01 0.460E+01 0.000E+00 0.289E+01 0.281E+01 0.929E+02 0.000E+00 0.100E-05 0.000E+00 0.367E+01 0.236E-09 0.100E-08 0.100E-08 0.100E-08 0.100E-08 0.200E-08 0.367E+01 0.113E-02 0.100E-11 .59258E-23 0.000E+00 0.304E+00 0.000E+00 0.000E+00 0.000E+00
BIGSUB   3        0  361.42478E-01 0.460E+01 0.000E+00 0.289E+01 0.281E+01 0.932E+02 0.000E+00 0.100E-05 0.000E+00 0.360E+01 0.235E-09 0.100E-08 0.100E-08 0.100E-08 0.100E-08 0.200E-08 0.360E+01 0.128E-02 0.100E-11 .61629E-23 0.000E+00 0.298E+00 0.000E+00 0.000E+00 0.000E+00
BIGSUB   4        0  361.68128E-01 0.460E+01 0.000E+00 0.289E+01 0.281E+01 0.929E+02 0.000E+00 0.100E-05 0.000E+00 0.366E+01 0.294E-09 0.100E-08 0.100E-08 0.100E-08 0.100E-08 0.200E-08 0.365E+01 0.106E-02 0.100E-11 .60786E-23 0.000E+00 0.303E+00 0.000E+00 0.000E+00 0.000E+00
BIGSUB   5        0  361.44632E-01 0.460E+01 0.000E+00 0.289E+01 0.280E+01 0.101E+03 0.357E-01 0.330E-04 0.273E+00 0.395E+01 0.134E-08 0.100E-08 0.100E-08 0.683E-08 0.807E-08 0.200E-08 0.366E+01 0.116E-02 0.135E-03 .39855E-14 0.000E+00 0.327E+00 0.000E+00 0.000E+00 0.000E+00
BIGSUB   6        0  361.85263E-01 0.460E+01 0.000E+00 0.289E+01 0.282E+01 0.101E+03 0.352E-01 0.122E-04 0.368E+00 0.369E+01 0.469E-09 0.341E-06 0.426E-07 0.204E-08 0.281E-08 0.313E-07 0.330E+01 0.155E-02 0.142E-03 .62268E-13 0.000E+00 0.305E+00 0.000E+00 0.000E+00 0.000E+00
BIGSUB   7        0  361.43914E-01 0.460E+01 0.000E+00 0.289E+01 0.281E+01 0.935E+02 0.000E+00 0.100E-05 0.000E+00 0.349E+01 0.455E-09 0.100E-08 0.100E-08 0.100E-08 0.100E-08 0.200E-08 0.349E+01 0.136E-02 0.100E-11 .65867E-23 0.000E+00 0.289E+00 0.000E+00 0.000E+00 0.000E+00
BIGSUB   8        0  361.34680E-01 0.460E+01 0.000E+00 0.289E+01 0.281E+01 0.929E+02 0.338E-02 0.645E-02 0.118E-01 0.356E+01 0.114E-08 0.738E-05 0.904E-06 0.706E-05 0.727E-07 0.782E-06 0.354E+01 0.128E-02 0.554E-05 .31008E-07 0.210E-07 0.295E+00 0.000E+00 0.000E+00 0.000E+00
BIGSUB   9        0  361.21649E-01 0.460E+01 0.000E+00 0.289E+01 0.282E+01 0.128E+03 0.234E+00 0.100E-05 0.148E+01 0.464E+01 0.139E-08 0.693E-08 0.125E-08 0.100E-08 0.100E-08 0.202E-08 0.310E+01 0.209E-02 0.828E-03 .11485E-22 0.000E+00 0.385E+00 0.000E+00 0.000E+00 0.000E+00
BIGSUB  10        0  361.10773E-01 0.460E+01 0.000E+00 0.289E+01 0.282E+01 0.147E+03 0.448E+00 0.738E-03 0.243E+01 0.516E+01 0.371E-08 0.314E-04 0.385E-05 0.625E-07 0.826E-07 0.278E-05 0.262E+01 0.216E-02 0.141E-02 .23143E-11 0.000E+00 0.427E+00 0.000E+00 0.000E+00 0.000E+00
BIGSUB  11        0  361.26677E-01 0.460E+01 0.000E+00 0.289E+01 0.280E+01 0.128E+03 0.280E+00 0.581E-02 0.152E+01 0.433E+01 0.405E-08 0.186E-04 0.230E-05 0.100E-05 0.152E-05 0.165E-05 0.273E+01 0.240E-02 0.759E-03 .66764E-09 0.000E+00 0.358E+00 0.000E+00 0.000E+00 0.000E+00
BIGSUB   1        0  362.72643E-01 0.147E+02 0.000E+00 0.389E+01 0.343E+01 0.936E+02 0.000E+00 0.632E+00 0.000E+00 0.840E+01 0.240E-01 0.322E-01 0.395E-02 0.506E-04 0.184E-04 0.304E-02 0.776E+01 0.788E-02 0.100E-11 .73062E-05 0.611E+00 0.634E+00 0.000E+00 0.000E+00 0.000E+00
BIGSUB   2        0  362.84750E-01 0.147E+02 0.000E+00 0.389E+01 0.343E+01 0.937E+02 0.103E-01 0.642E+00 0.000E+00 0.833E+01 0.229E-01 0.327E-01 0.401E-02 0.503E-04 0.197E-04 0.309E-02 0.769E+01 0.775E-02 0.100E-11 .80127E-05 0.603E+00 0.628E+00 0.000E+00 0.000E+00 0.000E+00
BIGSUB   3        0  362.42478E-01 0.147E+02 0.000E+00 0.389E+01 0.344E+01 0.938E+02 0.197E+00 0.644E+00 0.000E+00 0.834E+01 0.191E-01 0.339E-01 0.416E-02 0.468E-04 0.217E-04 0.319E-02 0.769E+01 0.931E-02 0.100E-11 .81032E-05 0.530E+00 0.628E+00 0.000E+00 0.000E+00 0.000E+00
BIGSUB   4        0  362.68128E-01 0.147E+02 0.000E+00 0.389E+01 0.343E+01 0.936E+02 0.457E-01 0.709E+00 0.000E+00 0.839E+01 0.227E-01 0.333E-01 0.410E-02 0.621E-04 0.306E-04 0.316E-02 0.768E+01 0.815E-02 0.100E-11 .13208E-04 0.612E+00 0.627E+00 0.000E+00 0.000E+00 0.000E+00
BIGSUB   5        0  362.44632E-01 0.147E+02 0.000E+00 0.388E+01 0.343E+01 0.102E+03 0.669E+00 0.567E+00 0.279E+00 0.830E+01 0.207E-01 0.283E-01 0.347E-02 0.484E-04 0.195E-04 0.267E-02 0.744E+01 0.786E-02 0.139E-03 .62482E-05 0.520E+00 0.632E+00 0.000E+00 0.000E+00 0.000E+00
BIGSUB   6        0  362.85263E-01 0.147E+02 0.000E+00 0.388E+01 0.344E+01 0.101E+03 0.147E+01 0.604E+00 0.386E+00 0.827E+01 0.142E-01 0.326E-01 0.399E-02 0.360E-04 0.232E-04 0.305E-02 0.726E+01 0.122E-01 0.148E-03 .82777E-05 0.430E+00 0.626E+00 0.000E+00 0.000E+00 0.000E+00
BIGSUB   7        0  362.43914E-01 0.147E+02 0.000E+00 0.388E+01 0.343E+01 0.938E+02 0.451E+00 0.696E+00 0.000E+00 0.834E+01 0.168E-01 0.353E-01 0.433E-02 0.515E-04 0.301E-04 0.332E-02 0.763E+01 0.109E-01 0.100E-11 .11717E-04 0.507E+00 0.624E+00 0.000E+00 0.000E+00 0.000E+00
BIGSUB   8        0  362.34680E-01 0.147E+02 0.000E+00 0.388E+01 0.343E+01 0.935E+02 0.264E+00 0.741E+00 0.120E-01 0.834E+01 0.227E-01 0.338E-01 0.414E-02 0.703E-04 0.237E-04 0.318E-02 0.758E+01 0.947E-02 0.562E-05 .11414E-04 0.161E+01 0.621E+00 0.000E+00 0.000E+00 0.000E+00
BIGSUB   9        0  362.21649E-01 0.147E+02 0.000E+00 0.388E+01 0.343E+01 0.128E+03 0.369E+01 0.343E+00 0.152E+01 0.757E+01 0.733E-02 0.180E-01 0.220E-02 0.258E-04 0.148E-04 0.168E-02 0.564E+01 0.759E-02 0.854E-03 .52383E-05 0.226E+00 0.590E+00 0.000E+00 0.000E+00 0.000E+00
BIGSUB  10        0  362.10773E-01 0.147E+02 0.000E+00 0.388E+01 0.344E+01 0.147E+03 0.590E+01 0.235E+00 0.248E+01 0.694E+01 0.425E-02 0.108E-01 0.132E-02 0.166E-04 0.155E-04 0.992E-03 0.411E+01 0.460E-02 0.145E-02 .40989E-05 0.129E+00 0.547E+00 0.000E+00 0.000E+00 0.000E+00
BIGSUB  11        0  362.26677E-01 0.147E+02 0.000E+00 0.388E+01 0.342E+01 0.128E+03 0.420E+01 0.582E+00 0.156E+01 0.749E+01 0.556E-02 0.197E-01 0.243E-02 0.466E-04 0.637E-04 0.185E-02 0.528E+01 0.926E-02 0.783E-03 .15721E-04 0.208E+00 0.570E+00 0.000E+00 0.000E+00 0.000E+00
BIGSUB   1        0  363.72643E-01 0.840E+01 0.000E+00 0.423E+01 0.365E+01 0.935E+02 0.000E+00 0.100E-05 0.000E+00 0.581E+01 0.138E-09 0.100E-08 0.100E-08 0.100E-08 0.100E-08 0.200E-08 0.581E+01 0.520E-02 0.100E-11 .23695E-23 0.000E+00 0.475E+00 0.000E+00 0.000E+00 0.000E+00
BIGSUB   2        0  363.84750E-01 0.840E+01 0.000E+00 0.423E+01 0.364E+01 0.935E+02 0.922E-01 0.607E-03 0.000E+00 0.584E+01 0.236E-09 0.100E-08 0.100E-08 0.157E-06 0.534E-07 0.200E-08 0.584E+01 0.628E-02 0.100E-11 .19471E-11 0.000E+00 0.477E+00 0.000E+00 0.000E+00 0.000E+00
BIGSUB   3        0  363.42478E-01 0.840E+01 0.000E+00 0.423E+01 0.365E+01 0.936E+02 0.140E+00 0.100E-05 0.000E+00 0.581E+01 0.235E-09 0.100E-08 0.100E-08 0.100E-08 0.100E-08 0.200E-08 0.581E+01 0.709E-02 0.100E-11 .23678E-23 0.000E+00 0.475E+00 0.000E+00 0.000E+00 0.000E+00
BIGSUB   4        0  363.68128E-01 0.840E+01 0.000E+00 0.423E+01 0.364E+01 0.936E+02 0.272E-01 0.105E-01 0.921E-03 0.578E+01 0.294E-09 0.132E-03 0.165E-04 0.192E-05 0.122E-05 0.131E-04 0.577E+01 0.552E-02 0.484E-07 .63929E-08 0.195E-08 0.472E+00 0.000E+00 0.000E+00 0.000E+00
BIGSUB   5        0  363.44632E-01 0.840E+01 0.000E+00 0.422E+01 0.364E+01 0.102E+03 0.258E+00 0.138E-02 0.284E+00 0.590E+01 0.134E-08 0.100E-08 0.100E-08 0.222E-06 0.272E-06 0.200E-08 0.560E+01 0.525E-02 0.143E-03 .19349E-10 0.000E+00 0.482E+00 0.000E+00 0.000E+00 0.000E+00
BIGSUB   6        0  363.85263E-01 0.840E+01 0.000E+00 0.422E+01 0.364E+01 0.101E+03 0.530E+00 0.333E-05 0.402E+00 0.586E+01 0.469E-09 0.100E-08 0.100E-08 0.111E-08 0.137E-08 0.200E-08 0.544E+01 0.836E-02 0.152E-03 .85681E-18 0.000E+00 0.479E+00 0.000E+00 0.000E+00 0.000E+00
BIGSUB   7        0  363.43914E-01 0.840E+01 0.000E+00 0.422E+01 0.364E+01 0.936E+02 0.207E+00 0.601E-02 0.000E+00 0.576E+01 0.455E-09 0.100E-08 0.100E-08 0.120E-05 0.682E-06 0.200E-08 0.574E+01 0.794E-02 0.100E-11 .55515E-10 0.000E+00 0.470E+00 0.000E+00 0.000E+00 0.000E+00
BIGSUB   8        0  363.34680E-01 0.840E+01 0.000E+00 0.422E+01 0.364E+01 0.933E+02 0.162E+00 0.346E-01 0.122E-01 0.579E+01 0.114E-08 0.255E-04 0.312E-05 0.123E-04 0.189E-06 0.270E-05 0.573E+01 0.722E-02 0.568E-05 .34396E-06 0.502E-07 0.473E+00 0.000E+00 0.000E+00 0.000E+00
BIGSUB   9        0  363.21649E-01 0.840E+01 0.000E+00 0.422E+01 0.364E+01 0.127E+03 0.146E+01 0.149E-02 0.154E+01 0.601E+01 0.139E-08 0.100E-08 0.100E-08 0.389E-06 0.148E-06 0.200E-08 0.440E+01 0.571E-02 0.874E-03 .12414E-10 0.000E+00 0.491E+00 0.000E+00 0.000E+00 0.000E+00
BIGSUB  10        0  363.10773E-01 0.840E+01 0.000E+00 0.422E+01 0.364E+01 0.146E+03 0.239E+01 0.154E-03 0.253E+01 0.594E+01 0.371E-08 0.506E-05 0.620E-06 0.760E-08 0.178E-07 0.449E-06 0.331E+01 0.352E-02 0.149E-02 .15152E-13 0.000E+00 0.485E+00 0.000E+00 0.000E+00 0.000E+00
BIGSUB  11        0  363.26677E-01 0.840E+01 0.000E+00 0.422E+01 0.362E+01 0.128E+03 0.169E+01 0.240E-01 0.159E+01 0.578E+01 0.405E-08 0.389E-05 0.481E-06 0.362E-05 0.426E-05 0.348E-06 0.410E+01 0.673E-02 0.804E-03 .67932E-09 0.000E+00 0.472E+00 0.000E+00 0.000E+00 0.000E+00
BIGSUB   1        0  364.72643E-01 0.300E+00 0.000E+00 0.571E+01 0.317E+01 0.907E+02 0.000E+00 0.100E-05 0.000E+00 0.200E+01 0.138E-09 0.100E-08 0.100E-08 0.100E-08 0.100E-08 0.200E-08 0.200E+01 0.179E-02 0.100E-11 .20052E-22 0.000E+00 0.163E+00 0.000E+00 0.000E+00 0.000E+00
BIGSUB   2        0  364.84750E-01 0.300E+00 0.000E+00 0.571E+01 0.316E+01 0.906E+02 0.000E+00 0.100E-05 0.000E+00 0.201E+01 0.236E-09 0.100E-08 0.100E-08 0.100E-08 0.100E-08 0.200E-08 0.201E+01 0.216E-02 0.100E-11 .19829E-22 0.000E+00 0.164E+00 0.000E+00 0.000E+00 0.000E+00
BIGSUB   3        0  364.42478E-01 0.300E+00 0.000E+00 0.571E+01 0.317E+01 0.907E+02 0.000E+00 0.100E-05 0.000E+00 0.200E+01 0.235E-09 0.100E-08 0.100E-08 0.100E-08 0.100E-08 0.200E-08 0.200E+01 0.243E-02 0.100E-11 .20009E-22 0.000E+00 0.163E+00 0.000E+00 0.000E+00 0.000E+00
BIGSUB   4        0  364.68128E-01 0.300E+00 0.000E+00 0.571E+01 0.316E+01 0.907E+02 0.000E+00 0.100E-05 0.177E-02 0.199E+01 0.294E-09 0.100E-08 0.100E-08 0.100E-08 0.100E-08 0.200E-08 0.198E+01 0.190E-02 0.952E-07 .20330E-22 0.000E+00 0.162E+00 0.000E+00 0.000E+00 0.000E+00
BIGSUB   5        0  364.44632E-01 0.300E+00 0.000E+00 0.570E+01 0.318E+01 0.988E+02 0.000E+00 0.203E-05 0.289E+00 0.230E+01 0.134E-08 0.100E-08 0.100E-08 0.113E-08 0.123E-08 0.200E-08 0.200E+01 0.190E-02 0.145E-03 .92594E-19 0.000E+00 0.188E+00 0.000E+00 0.000E+00 0.000E+00
BIGSUB   6        0  364.85263E-01 0.300E+00 0.000E+00 0.570E+01 0.318E+01 0.977E+02 0.000E+00 0.100E-05 0.417E+00 0.237E+01 0.469E-09 0.100E-08 0.100E-08 0.100E-08 0.100E-08 0.200E-08 0.193E+01 0.295E-02 0.156E-03 .16573E-22 0.000E+00 0.194E+00 0.000E+00 0.000E+00 0.000E+00
BIGSUB   7        0  364.43914E-01 0.300E+00 0.000E+00 0.571E+01 0.316E+01 0.907E+02 0.000E+00 0.100E-05 0.000E+00 0.198E+01 0.455E-09 0.100E-08 0.100E-08 0.100E-08 0.100E-08 0.200E-08 0.197E+01 0.273E-02 0.100E-11 .20445E-22 0.000E+00 0.162E+00 0.000E+00 0.000E+00 0.000E+00
BIGSUB   8        0  364.34680E-01 0.300E+00 0.000E+00 0.570E+01 0.316E+01 0.904E+02 0.000E+00 0.370E-05 0.124E-01 0.199E+01 0.114E-08 0.100E-08 0.100E-08 0.111E-08 0.152E-08 0.200E-08 0.197E+01 0.248E-02 0.570E-05 .18412E-18 0.000E+00 0.162E+00 0.000E+00 0.000E+00 0.000E+00
BIGSUB   9        0  364.21649E-01 0.300E+00 0.000E+00 0.570E+01 0.325E+01 0.124E+03 0.000E+00 0.100E-05 0.157E+01 0.351E+01 0.139E-08 0.100E-08 0.100E-08 0.100E-08 0.100E-08 0.200E-08 0.187E+01 0.238E-02 0.888E-03 .11847E-22 0.000E+00 0.286E+00 0.000E+00 0.000E+00 0.000E+00
BIGSUB  10        0  364.10773E-01 0.300E+00 0.000E+00 0.570E+01 0.330E+01 0.143E+03 0.000E+00 0.114E-05 0.257E+01 0.431E+01 0.371E-08 0.942E-08 0.192E-08 0.100E-08 0.100E-08 0.257E-08 0.164E+01 0.181E-02 0.151E-02 .82557E-22 0.000E+00 0.352E+00 0.000E+00 0.000E+00 0.000E+00
BIGSUB  11        0  364.26677E-01 0.300E+00 0.000E+00 0.570E+01 0.323E+01 0.125E+03 0.000E+00 0.282E-03 0.162E+01 0.340E+01 0.405E-08 0.122E-07 0.232E-08 0.332E-07 0.782E-07 0.285E-08 0.172E+01 0.278E-02 0.818E-03 .11331E-12 0.000E+00 0.278E+00 0.000E+00 0.000E+00 0.000E+00
BIGSUB   1        0  365.72643E-01 0.740E+01 0.000E+00 0.349E+01 0.296E+01 0.922E+02 0.000E+00 0.100E-05 0.000E+00 0.263E+01 0.138E-09 0.100E-08 0.100E-08 0.100E-08 0.100E-08 0.200E-08 0.263E+01 0.735E-03 0.100E-11 .11535E-22 0.000E+00 0.219E+00 0.000E+00 0.000E+00 0.000E+00
BIGSUB   2        0  365.84750E-01 0.740E+01 0.000E+00 0.349E+01 0.297E+01 0.922E+02 0.000E+00 0.662E-04 0.000E+00 0.259E+01 0.236E-09 0.100E-08 0.100E-08 0.262E-07 0.665E-08 0.200E-08 0.259E+01 0.857E-03 0.100E-11 .15984E-13 0.000E+00 0.215E+00 0.000E+00 0.000E+00 0.000E+00
BIGSUB   3        0  365.42478E-01 0.740E+01 0.000E+00 0.349E+01 0.301E+01 0.923E+02 0.000E+00 0.100E-05 0.000E+00 0.249E+01 0.235E-09 0.100E-08 0.100E-08 0.100E-08 0.100E-08 0.200E-08 0.249E+01 0.942E-03 0.100E-11 .12867E-22 0.000E+00 0.207E+00 0.000E+00 0.000E+00 0.000E+00
BIGSUB   4        0  365.68128E-01 0.740E+01 0.000E+00 0.349E+01 0.297E+01 0.922E+02 0.000E+00 0.254E-02 0.255E-02 0.260E+01 0.294E-09 0.100E-08 0.100E-08 0.769E-06 0.297E-06 0.200E-08 0.259E+01 0.774E-03 0.139E-06 .13127E-10 0.000E+00 0.216E+00 0.000E+00 0.000E+00 0.000E+00
BIGSUB   5        0  365.44632E-01 0.740E+01 0.000E+00 0.349E+01 0.297E+01 0.100E+03 0.153E-02 0.404E-03 0.292E+00 0.286E+01 0.134E-08 0.100E-08 0.100E-08 0.117E-06 0.832E-07 0.200E-08 0.255E+01 0.828E-03 0.147E-03 .17371E-11 0.000E+00 0.237E+00 0.000E+00 0.000E+00 0.000E+00
BIGSUB   6        0  365.85263E-01 0.740E+01 0.000E+00 0.349E+01 0.312E+01 0.997E+02 0.851E-03 0.100E-05 0.430E+00 0.260E+01 0.469E-09 0.100E-08 0.100E-08 0.100E-08 0.100E-08 0.200E-08 0.215E+01 0.114E-02 0.158E-03 .12882E-22 0.000E+00 0.216E+00 0.000E+00 0.000E+00 0.000E+00
BIGSUB   7        0  365.43914E-01 0.740E+01 0.000E+00 0.349E+01 0.305E+01 0.925E+02 0.000E+00 0.146E-02 0.000E+00 0.238E+01 0.455E-09 0.100E-08 0.100E-08 0.468E-06 0.167E-06 0.200E-08 0.238E+01 0.103E-02 0.100E-11 .74731E-11 0.000E+00 0.198E+00 0.000E+00 0.000E+00 0.000E+00
BIGSUB   8        0  365.34680E-01 0.740E+01 0.000E+00 0.349E+01 0.301E+01 0.921E+02 0.240E-02 0.243E-01 0.125E-01 0.249E+01 0.902E-03 0.226E-04 0.277E-05 0.116E-04 0.649E-07 0.240E-05 0.245E+01 0.958E-03 0.570E-05 .42126E-06 0.170E+00 0.205E+00 0.000E+00 0.000E+00 0.000E+00
BIGSUB   9        0  365.21649E-01 0.740E+01 0.000E+00 0.349E+01 0.312E+01 0.127E+03 0.000E+00 0.317E-03 0.159E+01 0.356E+01 0.139E-08 0.100E-08 0.100E-08 0.125E-06 0.322E-07 0.200E-08 0.190E+01 0.115E-02 0.896E-03 .79458E-12 0.000E+00 0.296E+00 0.000E+00 0.000E+00 0.000E+00
BIGSUB  10        0  365.10773E-01 0.740E+01 0.000E+00 0.349E+01 0.314E+01 0.146E+03 0.593E-01 0.100E-05 0.260E+01 0.426E+01 0.371E-08 0.100E-08 0.100E-08 0.100E-08 0.100E-08 0.200E-08 0.156E+01 0.108E-02 0.152E-02 .53569E-23 0.000E+00 0.354E+00 0.000E+00 0.000E+00 0.000E+00
BIGSUB  11        0  365.26677E-01 0.740E+01 0.000E+00 0.349E+01 0.316E+01 0.127E+03 0.565E-01 0.623E-02 0.164E+01 0.338E+01 0.405E-08 0.999E-09 0.999E-09 0.173E-05 0.112E-05 0.200E-08 0.167E+01 0.138E-02 0.827E-03 .26355E-10 0.000E+00 0.281E+00 0.000E+00 0.000E+00 0.000E+00
BIGSUB   1        0  366.72643E-01 0.399E+02 0.000E+00 0.181E+01 0.179E+01 0.954E+02 0.769E+00 0.124E+02 0.000E+00 0.275E+02 0.411E+00 0.571E+00 0.700E-01 0.265E-03 0.355E-03 0.539E-01 0.151E+02 0.272E-01 0.100E-11 .46346E-02 0.648E+02 0.127E+01 0.000E+00 0.000E+00 0.000E+00
BIGSUB   2        0  366.84750E-01 0.399E+02 0.000E+00 0.181E+01 0.180E+01 0.954E+02 0.898E+00 0.124E+02 0.000E+00 0.275E+02 0.390E+00 0.574E+00 0.704E-01 0.258E-03 0.372E-03 0.542E-01 0.151E+02 0.276E-01 0.100E-11 .47002E-02 0.625E+02 0.127E+01 0.000E+00 0.000E+00 0.000E+00
BIGSUB   3        0  366.42478E-01 0.399E+02 0.000E+00 0.181E+01 0.179E+01 0.954E+02 0.117E+01 0.124E+02 0.000E+00 0.274E+02 0.321E+00 0.590E+00 0.724E-01 0.245E-03 0.415E-03 0.555E-01 0.149E+02 0.281E-01 0.100E-11 .48857E-02 0.543E+02 0.126E+01 0.000E+00 0.000E+00 0.000E+00
BIGSUB   4        0  366.68128E-01 0.399E+02 0.000E+00 0.181E+01 0.179E+01 0.954E+02 0.847E+00 0.127E+02 0.342E-02 0.276E+02 0.384E+00 0.561E+00 0.689E-01 0.282E-03 0.459E-03 0.531E-01 0.149E+02 0.272E-01 0.195E-06 .47106E-02 0.611E+02 0.125E+01 0.000E+00 0.000E+00 0.000E+00
BIGSUB   5        0  366.44632E-01 0.399E+02 0.000E+00 0.182E+01 0.180E+01 0.104E+03 0.228E+01 0.115E+02 0.298E+00 0.262E+02 0.359E+00 0.527E+00 0.646E-01 0.258E-03 0.428E-03 0.496E-01 0.144E+02 0.239E-01 0.151E-03 .41646E-02 0.564E+02 0.124E+01 0.000E+00 0.000E+00 0.000E+00
BIGSUB   6        0  366.85263E-01 0.399E+02 0.000E+00 0.182E+01 0.180E+01 0.102E+03 0.362E+01 0.117E+02 0.447E+00 0.258E+02 0.231E+00 0.548E+00 0.672E-01 0.193E-03 0.493E-03 0.512E-01 0.137E+02 0.267E-01 0.164E-03 .45965E-02 0.408E+02 0.119E+01 0.000E+00 0.000E+00 0.000E+00
BIGSUB   7        0  366.43914E-01 0.399E+02 0.000E+00 0.182E+01 0.180E+01 0.954E+02 0.152E+01 0.126E+02 0.000E+00 0.272E+02 0.276E+00 0.589E+00 0.723E-01 0.242E-03 0.498E-03 0.553E-01 0.146E+02 0.284E-01 0.100E-11 .50354E-02 0.487E+02 0.123E+01 0.000E+00 0.000E+00 0.000E+00
BIGSUB   8        0  366.34680E-01 0.399E+02 0.000E+00 0.182E+01 0.180E+01 0.951E+02 0.128E+01 0.127E+02 0.127E-01 0.274E+02 0.313E+00 0.583E+00 0.715E-01 0.262E-03 0.438E-03 0.547E-01 0.147E+02 0.280E-01 0.577E-05 .48626E-02 0.556E+02 0.124E+01 0.000E+00 0.000E+00 0.000E+00
BIGSUB   9        0  366.21649E-01 0.399E+02 0.000E+00 0.182E+01 0.180E+01 0.129E+03 0.103E+02 0.851E+01 0.162E+01 0.207E+02 0.135E+00 0.389E+00 0.477E-01 0.156E-03 0.580E-03 0.358E-01 0.105E+02 0.183E-01 0.919E-03 .28605E-02 0.227E+02 0.102E+01 0.000E+00 0.000E+00 0.000E+00
BIGSUB  10        0  366.10773E-01 0.399E+02 0.000E+00 0.182E+01 0.180E+01 0.148E+03 0.156E+02 0.725E+01 0.265E+01 0.174E+02 0.887E-01 0.300E+00 0.367E-01 0.125E-03 0.728E-03 0.271E-01 0.742E+01 0.112E-01 0.156E-02 .25605E-02 0.147E+02 0.857E+00 0.000E+00 0.000E+00 0.000E+00
BIGSUB  11        0  366.26677E-01 0.399E+02 0.000E+00 0.182E+01 0.179E+01 0.129E+03 0.102E+02 0.104E+02 0.167E+01 0.217E+02 0.926E-01 0.343E+00 0.422E-01 0.347E-03 0.120E-02 0.318E-01 0.955E+01 0.186E-01 0.850E-03 .31306E-02 0.163E+02 0.996E+00 0.000E+00 0.000E+00 0.000E+00
