1
    SWAT Dec 23 2016    VER 2016/Rev 664                                                                 0/ 0/   0      0: 0: 0

    General Input/Output section (file.cio):                                        
    2/12/2020 14:36:37 QSWAT Workflow v1.5.2                                        
                                                                                    
         Number of years in run:    5
         Area of watershed:        0.536 km2
1
    SWAT Dec 23 2016    VER 2016/Rev 664                                            

    General Input/Output section (file.cio):                                        
    2/12/2020 14:36:37 QSWAT Workflow v1.5.2                                        
                                                                                    
Annual Summary for Watershed in year    1 of simulation

UNIT                                    PERCO    TILE                           WATER     SED     NO3     NO3     NO3     NO3        N       P       P
TIME     PREC    SURQ    LATQ     GWQ    LATE       Q     SW       ET     PET   YIELD   YIELD    SURQ    LATQ    PERC    CROP  ORGANIC SOLUBLE ORGANIC TILENO3
         (mm)    (mm)    (mm)    (mm)    (mm)    (mm)    (mm)    (mm)    (mm)    (mm)   (t/ha)  ------------------(kg nutrient/ha)-------------------- (kg/ha)
1
    SWAT Dec 23 2016    VER 2016/Rev 664                                            

    General Input/Output section (file.cio):                                        
    2/12/2020 14:36:37 QSWAT Workflow v1.5.2                                        
                                                                                    
Annual Summary for Watershed in year    2 of simulation

UNIT                                    PERCO    TILE                           WATER     SED     NO3     NO3     NO3     NO3        N       P       P
TIME     PREC    SURQ    LATQ     GWQ    LATE       Q     SW       ET     PET   YIELD   YIELD    SURQ    LATQ    PERC    CROP  ORGANIC SOLUBLE ORGANIC TILENO3
         (mm)    (mm)    (mm)    (mm)    (mm)    (mm)    (mm)    (mm)    (mm)    (mm)   (t/ha)  ------------------(kg nutrient/ha)-------------------- (kg/ha)
1
    SWAT Dec 23 2016    VER 2016/Rev 664                                            

    General Input/Output section (file.cio):                                        
    2/12/2020 14:36:37 QSWAT Workflow v1.5.2                                        
                                                                                    
Annual Summary for Watershed in year    3 of simulation

UNIT                                    PERCO    TILE                           WATER     SED     NO3     NO3     NO3     NO3        N       P       P
TIME     PREC    SURQ    LATQ     GWQ    LATE       Q     SW       ET     PET   YIELD   YIELD    SURQ    LATQ    PERC    CROP  ORGANIC SOLUBLE ORGANIC TILENO3
         (mm)    (mm)    (mm)    (mm)    (mm)    (mm)    (mm)    (mm)    (mm)    (mm)   (t/ha)  ------------------(kg nutrient/ha)-------------------- (kg/ha)
1
    SWAT Dec 23 2016    VER 2016/Rev 664                                            

    General Input/Output section (file.cio):                                        
    2/12/2020 14:36:37 QSWAT Workflow v1.5.2                                        
                                                                                    
Annual Summary for Watershed in year    4 of simulation

UNIT                                    PERCO    TILE                           WATER     SED     NO3     NO3     NO3     NO3        N       P       P
TIME     PREC    SURQ    LATQ     GWQ    LATE       Q     SW       ET     PET   YIELD   YIELD    SURQ    LATQ    PERC    CROP  ORGANIC SOLUBLE ORGANIC TILENO3
         (mm)    (mm)    (mm)    (mm)    (mm)    (mm)    (mm)    (mm)    (mm)    (mm)   (t/ha)  ------------------(kg nutrient/ha)-------------------- (kg/ha)
    1   26.90    4.12    9.72    0.37    0.88    0.00   97.95    2.30    2.33   14.23    0.22    0.00    0.01    0.01    0.00     0.58    0.00    0.07    0.00
    2    1.00    0.00    3.42    0.37    0.00    0.00   95.87    3.07    3.90    3.81    0.00    0.00    0.00    0.00    0.00     0.00    0.00    0.00    0.00
    3   15.50    0.67    6.97    0.36    0.57    0.00   97.30    3.93    4.72    8.02    0.03    0.00    0.01    0.01    0.00     0.09    0.00    0.01    0.00
    4    6.40    0.00    4.13    0.35    0.10    0.00   96.47    4.55    5.73    4.50    0.00    0.00    0.00    0.00    0.00     0.00    0.00    0.00    0.00
    5   25.70    4.04   10.79    0.35    1.34    0.00   97.78    4.57    5.73   15.20    0.40    0.00    0.02    0.03    0.00     0.90    0.00    0.11    0.00
    6    1.30    0.00    3.87    0.35    0.00    0.00   95.37    3.61    5.76    4.24    0.00    0.00    0.01    0.00    0.00     0.00    0.00    0.00    0.00
    7    0.00    0.00    1.38    0.35    0.00    0.00   93.09    2.28    5.75    1.75    0.00    0.00    0.00    0.00    0.00     0.00    0.00    0.00    0.00
    8    0.00    0.00    0.51    0.35    0.00    0.00   91.20    1.89    5.97    0.87    0.00    0.00    0.00    0.00    0.00     0.00    0.00    0.00    0.00
    9   70.90   32.41   15.80    0.35    2.46    0.00   99.29    3.68    4.27   48.58    2.39    0.00    0.02    0.05    0.00     5.77    0.00    0.71    0.00
   10   49.80   18.77   20.91    0.36    3.41    0.00   99.54    3.59    4.13   40.06    0.00    0.00    0.05    0.09    0.00     4.41    0.00    0.54    0.00
   11   53.10   21.20   23.29    0.36    3.63    0.00  100.97    2.16    2.18   44.88    2.09    0.00    0.05    0.09    0.00     4.16    0.00    0.51    0.00
   12   38.90   11.78   22.24    0.38    3.27    0.00  101.27    1.86    1.88   34.42    0.00    0.00    0.05    0.09    0.00     1.80    0.00    0.22    0.00
   13   15.00    0.76   14.93    0.39    1.49    0.00  101.24    1.89    1.90   16.10    0.02    0.00    0.03    0.04    0.00     0.05    0.00    0.01    0.00
   14   23.40    3.50   15.48    0.40    2.27    0.00  101.05    2.08    2.10   19.41    0.13    0.00    0.03    0.06    0.00     0.34    0.00    0.04    0.00
   15   17.50    1.39   13.46    0.41    1.71    0.00  100.71    2.42    2.44   15.28    0.00    0.00    0.03    0.05    0.00     0.22    0.00    0.03    0.00
   16    8.40    0.01    8.23    0.43    0.63    0.00  100.40    2.73    2.76    8.68    0.00    0.00    0.02    0.02    0.00     0.00    0.00    0.00    0.00
   17   32.30    7.78   15.24    0.44    2.72    0.00  100.28    2.86    2.94   23.48    0.34    0.00    0.03    0.07    0.00     0.75    0.00    0.09    0.00
   18    2.50    0.00    5.78    0.45    0.00    0.00   99.69    2.48    2.54    6.25    0.00    0.00    0.01    0.00    0.00     0.00    0.00    0.00    0.00
   19   10.70    0.08    6.30    0.46    0.64    0.00  100.93    2.21    2.23    6.86    0.00    0.00    0.01    0.01    0.00     0.01    0.00    0.00    0.00
   20    8.60    0.01    5.92    0.47    0.71    0.00   99.28    3.86    4.56    6.42    0.00    0.00    0.01    0.02    0.00     0.00    0.00    0.00    0.00
   21    1.80    0.00    2.30    0.48    0.00    0.00   97.52    3.24    4.44    2.81    0.00    0.00    0.00    0.00    0.00     0.00    0.00    0.00    0.00
   22    8.10    0.00    2.89    0.49    0.09    0.00   98.63    3.72    4.36    3.40    0.00    0.00    0.00    0.00    0.00     0.00    0.00    0.00    0.00
   23    0.00    0.00    1.03    0.50    0.00    0.00   96.45    2.18    4.18    1.54    0.00    0.00    0.00    0.00    0.00     0.00    0.00    0.00    0.00
   24    0.00    0.00    0.37    0.50    0.00    0.00   94.52    1.93    4.75    0.90    0.00    0.00    0.00    0.00    0.00     0.00    0.00    0.00    0.00
   25    6.60    0.00    1.58    0.50    0.00    0.00   95.27    3.64    5.37    2.11    0.00    0.00    0.00    0.00    0.00     0.00    0.00    0.00    0.00
   26    0.00    0.00    0.55    0.51    0.00    0.00   93.15    2.12    4.98    1.08    0.00    0.00    0.00    0.00    0.00     0.00    0.00    0.00    0.00
   27    8.40    0.00    2.14    0.51    0.00    0.00   94.91    3.65    5.00    2.68    0.00    0.00    0.00    0.00    0.00     0.00    0.00    0.00    0.00
   28   28.20    4.99   10.02    0.51    1.12    0.00   98.81    3.80    4.48   15.55    0.29    0.00    0.01    0.02    0.00     0.59    0.00    0.07    0.00
   29   70.90   34.74   21.43    0.52    4.03    0.00  100.09    3.04    3.24   56.71    1.59    0.00    0.04    0.10    0.00     3.91    0.00    0.48    0.00
   30    6.60    0.00    9.70    0.52    0.24    0.00  101.57    1.57    1.58   10.25    0.00    0.00    0.02    0.00    0.00     0.00    0.00    0.00    0.00
   31   38.10   11.38   17.55    0.53    3.31    0.00  102.02    1.11    1.12   29.49    0.81    0.00    0.04    0.09    0.00     1.48    0.00    0.18    0.00
    1  576.60  157.65  277.92   13.34   34.62    0.00  102.02   88.00  117.32  449.54    8.34    0.01    0.51    0.83    0.00    25.06    0.01    3.06    0.00
   32    2.50    0.00    7.01    0.54    0.14    0.00  100.15    2.99    3.15    7.58    0.00    0.00    0.01    0.00    0.00     0.00    0.00    0.00    0.00
   33    5.80    0.00    4.24    0.54    0.16    0.00  102.29    0.84    0.84    4.81    0.00    0.00    0.01    0.00    0.00     0.00    0.00    0.00    0.00
   34    8.90    0.01    6.11    0.55    0.96    0.00   99.69    3.44    3.89    6.69    0.00    0.00    0.01    0.03    0.00     0.00    0.00    0.00    0.00
   35   24.10    3.66   11.87    0.56    1.97    0.00   99.87    3.27    3.61   16.12    0.35    0.00    0.02    0.05    0.00     0.57    0.00    0.07    0.00
   36   21.30    2.57   13.03    0.56    1.77    0.00  100.71    2.43    2.45   16.19    0.00    0.00    0.02    0.04    0.00     0.28    0.00    0.03    0.00
   37    3.30    0.00    5.23    0.57    0.04    0.00  101.22    1.77    1.79    5.83    0.00    0.00    0.01    0.00    0.00     0.00    0.00    0.00    0.00
   38    7.90    0.00    5.31    0.57    0.67    0.00   99.33    3.81    4.19    5.91    0.00    0.00    0.01    0.02    0.01     0.00    0.00    0.00    0.00
   39   70.60   34.66   19.86    0.58    4.22    0.00  100.68    2.46    2.46   55.12    1.60    0.00    0.03    0.10    0.22     3.15    0.00    0.38    0.00
   40    0.30    0.00    7.01    0.59    0.00    0.00   98.51    2.46    3.55    7.63    0.00    0.00    0.01    0.00    0.34     0.00    0.00    0.00    0.00
   41    0.00    0.00    2.51    0.60    0.00    0.00   97.06    1.45    2.40    3.13    0.00    0.00    0.00    0.00    0.21     0.00    0.00    0.00    0.00
   42    0.00    0.00    0.92    0.60    0.00    0.00   95.46    1.61    2.91    1.55    0.00    0.00    0.00    0.00    0.29     0.00    0.00    0.00    0.00
   43    0.00    0.00    0.35    0.60    0.00    0.00   93.21    2.25    5.20    0.98    0.00    0.00    0.00    0.00    0.27     0.00    0.00    0.00    0.00
   44    0.00    0.00    0.14    0.61    0.00    0.00   91.03    2.18    4.79    0.77    0.00    0.00    0.00    0.00    0.53     0.00    0.00    0.00    0.00
   45    0.00    0.00    0.06    0.61    0.00    0.00   88.96    2.07    4.36    0.69    0.00    0.00    0.00    0.00    0.51     0.00    0.00    0.00    0.00
   46    0.00    0.00    0.03    0.61    0.00    0.00   87.05    1.91    3.94    0.66    0.00    0.00    0.00    0.00    0.40     0.00    0.00    0.00    0.00
   47    0.00    0.00    0.01    0.61    0.00    0.00   84.52    2.53    4.88    0.65    0.00    0.00    0.00    0.00    0.48     0.00    0.00    0.00    0.00
   48    0.00    0.00    0.01    0.61    0.00    0.00   82.81    1.71    2.56    0.64    0.00    0.00    0.00    0.00    0.32     0.00    0.00    0.00    0.00
   49    0.00    0.00    0.00    0.60    0.00    0.00   80.47    2.34    3.55    0.63    0.00    0.00    0.00    0.00    0.43     0.00    0.00    0.00    0.00
   50    0.00    0.00    0.00    0.60    0.00    0.00   78.23    2.24    3.75    0.63    0.00    0.00    0.00    0.00    0.20     0.00    0.00    0.00    0.00
   51    0.00    0.00    0.00    0.60    0.00    0.00   76.08    2.14    3.89    0.62    0.00    0.00    0.00    0.00    0.27     0.00    0.00    0.00    0.00
   52    0.00    0.00    0.00    0.59    0.00    0.00   73.28    2.80    4.82    0.62    0.00    0.00    0.00    0.00    0.26     0.00    0.00    0.00    0.00
   53    0.00    0.00    0.00    0.59    0.00    0.00   70.65    2.63    4.38    0.61    0.00    0.00    0.00    0.00    0.24     0.00    0.00    0.00    0.00
   54    0.00    0.00    0.00    0.58    0.00    0.00   67.79    2.86    4.90    0.61    0.00    0.00    0.00    0.00    0.18     0.00    0.00    0.00    0.00
   55    0.00    0.00    0.00    0.58    0.00    0.00   65.13    2.66    4.10    0.60    0.00    0.00    0.00    0.00    0.19     0.00    0.00    0.00    0.00
   56    0.00    0.00    0.00    0.57    0.00    0.00   62.14    2.99    5.15    0.60    0.00    0.00    0.00    0.00    0.11     0.00    0.00    0.00    0.00
   57    0.00    0.00    0.00    0.56    0.00    0.00   59.06    3.08    5.19    0.59    0.00    0.00    0.00    0.00    0.12     0.00    0.00    0.00    0.00
   58    0.00    0.00    0.00    0.56    0.00    0.00   56.40    2.66    4.78    0.58    0.00    0.00    0.00    0.00    0.09     0.00    0.00    0.00    0.00
   59    0.00    0.00    0.00    0.55    0.00    0.00   53.68    2.73    5.26    0.57    0.00    0.00    0.00    0.00    0.05     0.00    0.00    0.00    0.00
    2  144.70   40.91   83.73   16.28    9.91    0.00   53.68   68.32  106.73  141.61    1.95    0.00    0.14    0.24    5.73     4.00    0.00    0.49    0.00
   60    0.00    0.00    0.00    0.54    0.00    0.00   50.95    2.72    4.20    0.57    0.00    0.00    0.00    0.00    0.04     0.00    0.00    0.00    0.00
   61    0.00    0.00    0.00    0.53    0.00    0.00   48.38    2.57    3.85    0.56    0.00    0.00    0.00    0.00    0.03     0.00    0.00    0.00    0.00
   62    0.00    0.00    0.00    0.53    0.00    0.00   45.54    2.84    4.35    0.55    0.00    0.00    0.00    0.00    0.03     0.00    0.00    0.00    0.00
   63    0.00    0.00    0.00    0.52    0.00    0.00   43.07    2.47    3.41    0.54    0.00    0.00    0.00    0.00    0.03     0.00    0.00    0.00    0.00
   64    0.00    0.00    0.00    0.51    0.00    0.00   40.83    2.24    5.15    0.53    0.00    0.00    0.00    0.00    0.03     0.00    0.00    0.00    0.00
   65    0.00    0.00    0.00    0.47    0.00    0.00   39.47    1.36    3.45    0.49    0.00    0.00    0.00    0.00    0.04     0.00    0.00    0.00    0.00
   66    0.00    0.00    0.00    0.46    0.00    0.00   38.33    1.14    1.86    0.49    0.00    0.00    0.00    0.00    0.03     0.00    0.00    0.00    0.00
   67    0.00    0.00    0.00    0.45    0.00    0.00   37.49    0.84    1.12    0.48    0.00    0.00    0.00    0.00    0.02     0.00    0.00    0.00    0.00
   68    0.00    0.00    0.00    0.44    0.00    0.00   35.46    2.03    3.03    0.46    0.00    0.00    0.00    0.00    0.02     0.00    0.00    0.00    0.00
   69    0.00    0.00    0.00    0.42    0.00    0.00   33.05    2.42    4.38    0.45    0.00    0.00    0.00    0.00    0.02     0.00    0.00    0.00    0.00
   70    5.60    0.00    1.16    0.41    0.00    0.00   33.72    3.14    4.12    1.60    0.00    0.00    0.00    0.00    0.02     0.00    0.00    0.00    0.00
   71    0.00    0.00    0.40    0.40    0.00    0.00   31.06    2.66    4.32    0.83    0.00    0.00    0.00    0.00    0.03     0.00    0.00    0.00    0.00
   72    1.80    0.00    0.29    0.39    0.00    0.00   29.33    3.30    3.99    0.71    0.00    0.00    0.00    0.00    0.03     0.00    0.00    0.00    0.00
   73    0.00    0.00    0.10    0.38    0.00    0.00   26.96    2.37    3.77    0.51    0.00    0.00    0.00    0.00    0.04     0.00    0.00    0.00    0.00
   74    2.80    0.00    0.47    0.36    0.00    0.00   25.69    3.40    4.46    0.86    0.00    0.00    0.00    0.00    0.04     0.00    0.00    0.00    0.00
   75   14.20    0.01    3.70    0.34    0.00    0.00   30.49    3.96    4.55    4.08    0.00    0.00    0.00    0.00    0.05     0.00    0.00    0.00    0.00
   76    0.50    0.00    1.29    0.31    0.00    0.00   27.68    3.31    4.94    1.62    0.00    0.00    0.00    0.00    0.05     0.00    0.00    0.00    0.00
   77    0.00    0.00    0.45    0.31    0.00    0.00   25.11    2.57    3.50    0.78    0.00    0.00    0.00    0.00    0.05     0.00    0.00    0.00    0.00
   78    5.60    0.00    1.33    0.30    0.00    0.00   25.06    3.85    5.04    1.66    0.00    0.00    0.00    0.00    0.04     0.00    0.00    0.00    0.00
   79    6.40    0.00    1.89    0.30    0.00    0.00   26.13    3.14    3.73    2.21    0.00    0.00    0.00    0.00    0.05     0.00    0.00    0.00    0.00
   80   17.80    0.02    5.27    0.29    0.00    0.00   33.63    3.18    3.33    5.60    0.00    0.00    0.00    0.00    0.04     0.00    0.00    0.00    0.00
   81    2.00    0.00    2.12    0.27    0.00    0.00   31.33    3.87    4.36    2.42    0.00    0.00    0.00    0.00    0.05     0.00    0.00    0.00    0.00
   82   17.30    0.02    6.14    0.27    0.00    0.00   37.58    2.73    2.83    6.45    0.00    0.00    0.00    0.00    0.05     0.00    0.00    0.00    0.00
   83    0.00    0.00    2.14    0.27    0.00    0.00   35.42    2.16    2.72    2.43    0.00    0.00    0.00    0.00    0.04     0.00    0.00    0.00    0.00
   84    3.30    0.00    1.38    0.26    0.00    0.00   34.67    3.08    3.39    1.67    0.00    0.00    0.00    0.00    0.04     0.00    0.00    0.00    0.00
   85   11.70    0.01    4.01    0.25    0.00    0.00   36.43    4.52    4.72    4.29    0.00    0.00    0.00    0.00    0.05     0.00    0.00    0.00    0.00
   86    3.00    0.00    1.88    0.25    0.00    0.00   36.18    2.51    2.77    2.16    0.00    0.00    0.00    0.00    0.04     0.00    0.00    0.00    0.00
   87    1.00    0.00    0.70    0.24    0.00    0.00   34.12    3.00    3.44    0.97    0.00    0.00    0.00    0.00    0.04     0.00    0.00    0.00    0.00
   88    0.80    0.00    0.25    0.23    0.00    0.00   32.35    2.56    3.18    0.51    0.00    0.00    0.00    0.00    0.03     0.00    0.00    0.00    0.00
   89    0.00    0.00    0.09    0.23    0.00    0.00   30.19    2.16    2.99    0.34    0.00    0.00    0.00    0.00    0.03     0.00    0.00    0.00    0.00
   90    0.00    0.00    0.03    0.21    0.00    0.00   27.42    2.78    4.37    0.27    0.00    0.00    0.00    0.00    0.03     0.00    0.00    0.00    0.00
    3   93.80    0.05   35.12   11.14    0.00    0.00   27.42   84.87  115.30   47.08    0.00    0.00    0.00    0.00    1.13     0.00    0.00    0.00    0.00
   91    0.30    0.00    0.01    0.20    0.00    0.00   24.73    2.99    4.73    0.24    0.00    0.00    0.00    0.00    0.03     0.00    0.00    0.00    0.00
   92    0.30    0.00    0.01    0.20    0.00    0.00   23.40    1.63    3.41    0.23    0.00    0.00    0.00    0.00    0.03     0.00    0.00    0.00    0.00
   93    0.30    0.00    0.00    0.20    0.00    0.00   22.12    1.58    4.70    0.22    0.00    0.00    0.00    0.00    0.03     0.00    0.00    0.00    0.00
   94    2.50    0.00    0.37    0.19    0.00    0.00   21.80    2.25    4.20    0.58    0.00    0.00    0.00    0.00    0.03     0.00    0.00    0.00    0.00
   95    2.30    0.00    0.44    0.18    0.00    0.00   21.17    2.45    4.56    0.64    0.00    0.00    0.00    0.00    0.03     0.00    0.00    0.00    0.00
   96    4.30    0.00    0.98    0.14    0.00    0.00   20.76    3.43    5.23    1.15    0.00    0.00    0.00    0.00    0.03     0.00    0.00    0.00    0.00
   97    0.00    0.00    0.34    0.12    0.00    0.00   19.49    1.27    5.58    0.48    0.00    0.00    0.00    0.00    0.03     0.00    0.00    0.00    0.00
   98    0.00    0.00    0.12    0.10    0.00    0.00   18.54    0.95    4.32    0.24    0.00    0.00    0.00    0.00    0.03     0.00    0.00    0.00    0.00
   99    1.80    0.00    0.18    0.08    0.00    0.00   18.41    1.72    4.03    0.29    0.00    0.00    0.00    0.00    0.03     0.00    0.00    0.00    0.00
  100    0.00    0.00    0.06    0.08    0.00    0.00   17.49    0.92    4.44    0.17    0.00    0.00    0.00    0.00    0.03     0.00    0.00    0.00    0.00
  101   11.90    0.00    2.93    0.08    0.00    0.00   21.17    3.75    4.99    3.04    0.00    0.00    0.00    0.00    0.03     0.00    0.00    0.00    0.00
  102    1.80    0.00    1.19    0.08    0.00    0.00   19.94    2.76    3.71    1.29    0.00    0.00    0.00    0.00    0.03     0.00    0.00    0.00    0.00
  103    1.30    0.00    0.50    0.07    0.00    0.00   19.01    2.10    3.23    0.60    0.00    0.00    0.00    0.00    0.00     0.00    0.00    0.00    0.00
  104    2.80    0.00    0.71    0.07    0.00    0.00   19.19    1.79    2.72    0.81    0.00    0.00    0.00    0.00    0.00     0.00    0.00    0.00    0.00
  105    2.30    0.00    0.67    0.07    0.00    0.00   18.66    2.19    3.39    0.76    0.00    0.00    0.00    0.00    0.00     0.00    0.00    0.00    0.00
  106    0.00    0.00    0.23    0.07    0.00    0.00   18.22    0.44    1.46    0.33    0.00    0.00    0.00    0.00    0.00     0.00    0.00    0.00    0.00
  107    0.00    0.00    0.08    0.07    0.00    0.00   17.65    0.56    2.89    0.17    0.00    0.00    0.00    0.00    0.00     0.00    0.00    0.00    0.00
  108    0.00    0.00    0.03    0.06    0.00    0.00   17.37    0.29    1.18    0.12    0.00    0.00    0.00    0.00    0.00     0.00    0.00    0.00    0.00
  109    0.00    0.00    0.01    0.06    0.00    0.00   16.90    0.46    2.08    0.09    0.00    0.00    0.00    0.00    0.00     0.00    0.00    0.00    0.00
  110    0.30    0.00    0.00    0.06    0.00    0.00   16.70    0.51    2.25    0.08    0.00    0.00    0.00    0.00    0.00     0.00    0.00    0.00    0.00
  111    1.00    0.00    0.00    0.04    0.00    0.00   16.08    1.61    4.16    0.07    0.00    0.00    0.00    0.00    0.00     0.00    0.00    0.00    0.00
  112    1.30    0.00    0.05    0.04    0.00    0.00   15.93    1.39    3.45    0.11    0.00    0.00    0.00    0.00    0.00     0.00    0.00    0.00    0.00
  113   98.00   15.13   31.12    0.04    0.00    0.00   47.66    3.24    3.28   46.31    0.01    0.00    0.01    0.00    0.00     0.02    0.00    0.00    0.00
  114    0.80    0.00   10.84    0.04    0.00    0.00   46.77    1.69    1.88   10.90    0.00    0.00    0.00    0.00    0.00     0.00    0.00    0.00    0.00
  115    0.00    0.00    3.81    0.04    0.00    0.00   43.13    3.65    5.04    3.86    0.00    0.00    0.00    0.00    0.00     0.00    0.00    0.00    0.00
  116    0.50    0.00    1.35    0.03    0.00    0.00   40.49    3.13    4.80    1.41    0.00    0.00    0.00    0.00    0.00     0.00    0.00    0.00    0.00
  117    7.10    0.00    2.11    0.03    0.00    0.00   41.17    3.94    5.04    2.16    0.00    0.00    0.00    0.00    0.00     0.00    0.00    0.00    0.00
  118   24.90    0.10    9.22    0.03    0.01    0.00   49.96    2.91    4.23    9.37    0.00    0.00    0.00    0.00    0.00     0.00    0.00    0.00    0.00
  119    3.80    0.00    3.98    0.03    0.00    0.00   49.53    3.07    3.99    4.04    0.00    0.00    0.00    0.00    0.00     0.00    0.00    0.00    0.00
  120   69.30   16.22   26.33    0.03    1.08    0.00   60.21    2.84    3.38   42.60    0.01    0.00    0.02    0.00    0.00     0.01    0.00    0.00    0.00
    4  238.90   31.46   97.70    2.55    1.10    0.00   60.21   61.51  112.37  132.34    0.02    0.00    0.03    0.00    0.34     0.03    0.00    0.00    0.00
  121    4.60    0.00   10.32    0.04    0.06    0.00   60.47    2.56    2.88   10.38    0.00    0.00    0.01    0.00    0.00     0.00    0.00    0.00    0.00
  122    4.60    0.00    4.85    0.04    0.08    0.00   60.43    2.69    3.11    4.90    0.00    0.00    0.00    0.00    0.00     0.00    0.00    0.00    0.00
  123    4.60    0.00    2.89    0.04    0.07    0.00   60.31    2.86    3.41    2.95    0.00    0.00    0.00    0.00    0.00     0.00    0.00    0.00    0.00
  124    0.00    0.00    1.04    0.04    0.00    0.00   58.38    1.93    3.90    1.09    0.00    0.00    0.00    0.00    0.00     0.00    0.00    0.00    0.00
  125    0.00    0.00    0.38    0.04    0.00    0.00   56.48    1.90    5.00    0.44    0.00    0.00    0.00    0.00    0.00     0.00    0.00    0.00    0.00
  126    1.00    0.00    0.15    0.04    0.00    0.00   54.74    2.74    6.21    0.20    0.00    0.00    0.00    0.00    0.00     0.00    0.00    0.00    0.00
  127    2.00    0.00    0.30    0.04    0.00    0.00   53.81    2.55    5.44    0.36    0.00    0.00    0.00    0.00    0.00     0.00    0.00    0.00    0.00
  128    1.00    0.00    0.11    0.04    0.00    0.00   52.80    2.01    4.07    0.17    0.00    0.00    0.00    0.00    0.00     0.00    0.00    0.00    0.00
  129    0.00    0.00    0.04    0.04    0.00    0.00   51.47    1.33    4.94    0.10    0.00    0.00    0.00    0.00    0.00     0.00    0.00    0.00    0.00
  130    9.70    0.00    2.30    0.04    0.00    0.00   54.72    2.93    5.23    2.37    0.00    0.00    0.00    0.00    0.00     0.00    0.00    0.00    0.00
  131   33.50    2.15   13.69    0.05    0.95    0.00   63.31    1.91    2.08   15.90    0.00    0.00    0.02    0.00    0.00     0.00    0.00    0.00    0.00
  132    7.90    0.00    7.91    0.05    0.30    0.00   63.54    2.54    2.80    7.98    0.00    0.00    0.01    0.00    0.00     0.00    0.00    0.00    0.00
  133    1.80    0.00    2.99    0.05    0.00    0.00   62.37    2.65    3.34    3.06    0.00    0.00    0.00    0.00    0.00     0.00    0.00    0.00    0.00
  134    5.60    0.00    2.41    0.05    0.07    0.00   62.59    3.23    4.07    2.48    0.00    0.00    0.00    0.00    0.00     0.00    0.00    0.00    0.00
  135    0.50    0.00    0.86    0.05    0.00    0.00   60.67    2.42    4.28    0.93    0.00    0.00    0.00    0.00    0.00     0.00    0.00    0.00    0.00
  136    1.80    0.00    0.49    0.05    0.00    0.00   59.47    2.72    4.55    0.56    0.00    0.00    0.00    0.00    0.00     0.00    0.00    0.00    0.00
  137    0.00    0.00    0.18    0.05    0.00    0.00   57.83    1.64    4.55    0.25    0.00    0.00    0.00    0.00    0.00     0.00    0.00    0.00    0.00
  138    6.90    0.00    1.60    0.06    0.00    0.00   59.29    3.09    5.01    1.67    0.00    0.00    0.00    0.00    0.00     0.00    0.00    0.00    0.00
  139   11.90    0.01    4.16    0.06    0.20    0.00   62.25    3.16    3.93    4.24    0.00    0.00    0.00    0.00    0.00     0.00    0.00    0.00    0.00
  140    0.50    0.00    1.46    0.06    0.00    0.00   60.20    2.55    4.55    1.53    0.00    0.00    0.00    0.00    0.00     0.00    0.00    0.00    0.00
  141    0.00    0.00    0.52    0.06    0.00    0.00   58.24    1.96    5.23    0.59    0.00    0.00    0.00    0.00    0.00     0.00    0.00    0.00    0.00
  142    0.00    0.00    0.19    0.06    0.00    0.00   56.85    1.39    4.57    0.26    0.00    0.00    0.00    0.00    0.00     0.00    0.00    0.00    0.00
  143    5.60    0.00    1.24    0.06    0.00    0.00   58.12    2.53    4.28    1.31    0.00    0.00    0.00    0.00    0.00     0.00    0.00    0.00    0.00
  144    4.60    0.00    1.40    0.06    0.00    0.00   58.44    2.81    4.57    1.47    0.00    0.00    0.00    0.00    0.00     0.00    0.00    0.00    0.00
  145    0.00    0.00    0.49    0.06    0.00    0.00   56.49    1.94    5.40    0.56    0.00    0.00    0.00    0.00    0.00     0.00    0.00    0.00    0.00
  146    6.10    0.00    1.49    0.06    0.00    0.00   57.65    2.92    4.90    1.56    0.00    0.00    0.00    0.00    0.00     0.00    0.00    0.00    0.00
  147    1.30    0.00    0.59    0.06    0.00    0.00   56.44    2.41    4.25    0.66    0.00    0.00    0.00    0.00    0.00     0.00    0.00    0.00    0.00
  148    4.10    0.00    1.04    0.06    0.00    0.00   56.63    2.64    4.57    1.11    0.00    0.00    0.00    0.00    0.00     0.00    0.00    0.00    0.00
  149    0.80    0.00    0.36    0.06    0.00    0.00   55.05    2.37    5.16    0.44    0.00    0.00    0.00    0.00    0.00     0.00    0.00    0.00    0.00
  150   13.50    0.01    3.84    0.06    0.01    0.00   59.59    3.22    4.15    3.92    0.00    0.00    0.00    0.00    0.00     0.00    0.00    0.00    0.00
  151    0.80    0.00    1.34    0.06    0.00    0.00   58.24    2.15    3.20    1.41    0.00    0.00    0.00    0.00    0.00     0.00    0.00    0.00    0.00
    5  134.70    2.18   70.60    1.58    1.74    0.00   58.24   75.78  133.64   74.89    0.00    0.00    0.06    0.01    0.02     0.00    0.00    0.00    0.00
  152    1.80    0.00    0.67    0.06    0.00    0.00   57.40    2.34    3.46    0.74    0.00    0.00    0.00    0.00    0.00     0.00    0.00    0.00    0.00
  153    1.80    0.00    0.44    0.06    0.00    0.00   56.67    2.21    3.38    0.51    0.00    0.00    0.00    0.00    0.00     0.00    0.00    0.00    0.00
  154    0.00    0.00    0.16    0.06    0.00    0.00   55.13    1.54    4.38    0.23    0.00    0.00    0.00    0.00    0.00     0.00    0.00    0.00    0.00
  155    9.40    0.00    2.27    0.06    0.00    0.00   58.15    2.96    4.00    2.35    0.00    0.00    0.00    0.00    0.00     0.00    0.00    0.00    0.00
  156  174.20  100.31   36.06    0.06    3.23    0.00   71.74    2.56    2.78  136.44    0.17    0.00    0.08    0.03    0.00     0.37    0.01    0.05    0.00
  157    0.30    0.00   12.62    0.06    0.00    0.00   70.61    1.42    2.46   12.71    0.00    0.00    0.03    0.00    0.00     0.00    0.00    0.00    0.00
  158    1.80    0.00    4.68    0.07    0.00    0.00   70.45    1.64    1.82    4.76    0.00    0.00    0.01    0.00    0.00     0.00    0.00    0.00    0.00
  159    0.30    0.00    1.68    0.07    0.00    0.00   69.15    1.60    2.80    1.77    0.00    0.00    0.00    0.00    0.00     0.00    0.00    0.00    0.00
  160   11.70    0.01    4.48    0.07    0.28    0.00   72.02    2.57    2.79    4.57    0.00    0.00    0.01    0.00    0.00     0.00    0.00    0.00    0.00
  161    5.30    0.00    3.15    0.08    0.13    0.00   72.23    2.55    2.74    3.24    0.00    0.00    0.00    0.00    0.00     0.00    0.00    0.00    0.00
  162    0.30    0.00    1.12    0.08    0.00    0.00   71.20    1.33    2.27    1.21    0.00    0.00    0.00    0.00    0.00     0.00    0.00    0.00    0.00
  163    0.80    0.00    0.41    0.08    0.00    0.00   69.97    2.03    2.74    0.50    0.00    0.00    0.00    0.00    0.00     0.00    0.00    0.00    0.00
  164   10.70    0.01    3.61    0.08    0.25    0.00   72.56    2.50    2.67    3.71    0.00    0.00    0.00    0.00    0.00     0.00    0.00    0.00    0.00
  165    0.80    0.00    1.27    0.09    0.00    0.00   70.81    2.55    3.65    1.37    0.00    0.00    0.00    0.00    0.00     0.00    0.00    0.00    0.00
  166    1.80    0.00    0.65    0.09    0.00    0.00   69.96    2.36    3.20    0.75    0.00    0.00    0.00    0.00    0.00     0.00    0.00    0.00    0.00
  167   30.50    3.00   12.14    0.09    1.13    0.00   75.38    2.52    2.70   15.24    0.00    0.00    0.02    0.01    0.00     0.01    0.00    0.00    0.00
  168    0.80    0.00    4.26    0.09    0.00    0.00   73.66    2.53    3.57    4.36    0.00    0.00    0.01    0.00    0.00     0.00    0.00    0.00    0.00
  169    1.50    0.00    1.62    0.09    0.00    0.00   72.89    2.09    2.58    1.73    0.00    0.00    0.00    0.00    0.00     0.00    0.00    0.00    0.00
  170    0.50    0.00    0.59    0.10    0.00    0.00   72.15    1.25    2.34    0.70    0.00    0.00    0.00    0.00    0.00     0.00    0.00    0.00    0.00
  171    0.30    0.00    0.22    0.10    0.00    0.00   71.21    1.23    2.58    0.33    0.00    0.00    0.00    0.00    0.00     0.00    0.00    0.00    0.00
  172    0.00    0.00    0.08    0.10    0.00    0.00   69.80    1.42    3.73    0.20    0.00    0.00    0.00    0.00    0.00     0.00    0.00    0.00    0.00
  173    4.10    0.00    0.81    0.10    0.00    0.00   70.13    2.58    4.49    0.92    0.00    0.00    0.00    0.00    0.00     0.00    0.00    0.00    0.00
  174    6.10    0.00    1.66    0.10    0.00    0.00   71.40    2.71    3.95    1.77    0.00    0.00    0.00    0.00    0.00     0.00    0.00    0.00    0.00
  175    8.90    0.00    2.99    0.10    0.10    0.00   73.91    2.56    2.79    3.11    0.00    0.00    0.00    0.00    0.00     0.00    0.00    0.00    0.00
  176   17.30    0.27    8.29    0.10    0.73    0.00   77.04    1.96    2.08    8.67    0.00    0.00    0.01    0.01    0.00     0.00    0.00    0.00    0.00
  177    0.00    0.00    2.91    0.11    0.00    0.00   75.59    1.45    2.57    3.03    0.00    0.00    0.01    0.00    0.00     0.00    0.00    0.00    0.00
  178    0.00    0.00    1.03    0.11    0.00    0.00   74.88    0.71    1.47    1.15    0.00    0.00    0.00    0.00    0.00     0.00    0.00    0.00    0.00
  179    3.00    0.00    0.85    0.11    0.00    0.00   74.50    2.65    3.51    0.97    0.00    0.00    0.00    0.00    0.00     0.00    0.00    0.00    0.00
  180    0.30    0.00    0.31    0.11    0.00    0.00   73.30    1.49    2.96    0.43    0.00    0.00    0.00    0.00    0.00     0.00    0.00    0.00    0.00
  181    4.80    0.00    1.12    0.11    0.00    0.00   74.56    1.99    2.17    1.24    0.00    0.00    0.00    0.00    0.00     0.00    0.00    0.00    0.00
    6  299.10  103.61  112.12    2.58    5.85    0.00   74.56   61.32   88.63  218.72    0.17    0.00    0.20    0.05    0.00     0.38    0.01    0.05    0.00
  182    2.30    0.00    0.74    0.11    0.00    0.00   73.56    2.76    3.83    0.86    0.00    0.00    0.00    0.00    0.00     0.00    0.00    0.00    0.00
  183   14.00    0.06    5.24    0.11    0.44    0.00   76.39    2.97    3.44    5.42    0.00    0.00    0.01    0.00    0.00     0.00    0.00    0.00    0.00
  184    6.90    0.00    4.07    0.11    0.18    0.00   75.87    3.79    4.90    4.19    0.00    0.00    0.01    0.00    0.00     0.00    0.00    0.00    0.00
  185    0.00    0.00    1.43    0.11    0.00    0.00   73.86    2.01    4.33    1.56    0.00    0.00    0.00    0.00    0.00     0.00    0.00    0.00    0.00
  186    7.60    0.00    2.26    0.11    0.03    0.00   75.68    3.05    3.71    2.38    0.00    0.00    0.00    0.00    0.00     0.00    0.00    0.00    0.00
  187    1.50    0.00    0.92    0.11    0.00    0.00   74.20    2.79    3.89    1.04    0.00    0.00    0.00    0.00    0.00     0.00    0.00    0.00    0.00
  188    5.10    0.00    1.43    0.11    0.00    0.00   76.50    1.10    1.16    1.56    0.00    0.00    0.00    0.00    0.00     0.00    0.00    0.00    0.00
  189    0.30    0.00    0.50    0.11    0.00    0.00   75.38    1.42    1.85    0.63    0.00    0.00    0.00    0.00    0.00     0.00    0.00    0.00    0.00
  190    0.00    0.00    0.18    0.11    0.00    0.00   74.17    1.21    2.26    0.30    0.00    0.00    0.00    0.00    0.00     0.00    0.00    0.00    0.00
  191    2.80    0.00    0.55    0.11    0.00    0.00   74.13    2.10    2.40    0.67    0.00    0.00    0.00    0.00    0.00     0.00    0.00    0.00    0.00
  192    0.30    0.00    0.19    0.11    0.00    0.00   73.27    1.16    2.26    0.31    0.00    0.00    0.00    0.00    0.00     0.00    0.00    0.00    0.00
  193   14.70    0.09    5.14    0.11    0.46    0.00   77.53    2.05    2.15    5.35    0.00    0.00    0.01    0.01    0.00     0.00    0.00    0.00    0.00
  194   24.40    1.84   12.34    0.11    1.11    0.00   81.12    1.55    1.63   14.31    0.00    0.00    0.03    0.01    0.00     0.01    0.00    0.00    0.00
  195    2.00    0.00    4.67    0.11    0.02    0.00   80.69    1.89    1.98    4.79    0.00    0.00    0.01    0.00    0.00     0.00    0.00    0.00    0.00
  196    9.40    0.01    5.53    0.11    0.40    0.00   81.11    2.58    2.72    5.66    0.00    0.00    0.01    0.00    0.00     0.00    0.00    0.00    0.00
  197    5.10    0.00    3.43    0.11    0.12    0.00   80.83    2.99    3.43    3.55    0.00    0.00    0.01    0.00    0.00     0.00    0.00    0.00    0.00
  198   31.80    4.83   13.72    0.12    1.37    0.00   83.61    3.46    4.22   18.68    0.01    0.00    0.03    0.02    0.00     0.01    0.00    0.00    0.00
  199   10.40    0.02    8.71    0.12    0.42    0.00   84.54    3.03    3.47    8.86    0.00    0.00    0.02    0.00    0.00     0.00    0.00    0.00    0.00
  200   33.50    6.11   15.93    0.12    1.77    0.00   86.95    3.30    3.92   22.18    0.02    0.00    0.03    0.02    0.00     0.05    0.00    0.01    0.00
  201   27.40    3.75   16.43    0.13    1.47    0.00   89.88    2.50    2.61   20.33    0.00    0.00    0.02    0.02    0.00     0.03    0.00    0.00    0.00
  202    0.00    0.00    5.80    0.14    0.00    0.00   88.99    0.89    1.58    5.95    0.00    0.00    0.01    0.00    0.00     0.00    0.00    0.00    0.00
  203    0.00    0.00    2.08    0.14    0.00    0.00   87.81    1.18    2.31    2.23    0.00    0.00    0.00    0.00    0.00     0.00    0.00    0.00    0.00
  204    0.00    0.00    0.76    0.14    0.00    0.00   86.40    1.41    3.32    0.92    0.00    0.00    0.00    0.00    0.00     0.00    0.00    0.00    0.00
  205   13.70    0.18    4.80    0.15    0.39    0.00   88.69    3.88    4.88    5.14    0.00    0.00    0.00    0.00    0.00     0.00    0.00    0.00    0.00
  206    0.00    0.00    1.69    0.15    0.00    0.00   85.99    2.70    5.72    1.86    0.00    0.00    0.00    0.00    0.00     0.00    0.00    0.00    0.00
  207    0.00    0.00    0.61    0.15    0.00    0.00   84.25    1.74    4.87    0.77    0.00    0.00    0.00    0.00    0.00     0.00    0.00    0.00    0.00
  208   23.40    2.11    7.87    0.16    0.72    0.00   89.23    3.77    4.68   10.14    0.00    0.00    0.01    0.01    0.00     0.01    0.00    0.00    0.00
  209    4.10    0.00    3.59    0.16    0.00    0.00   88.73    3.32    4.17    3.77    0.00    0.00    0.00    0.00    0.00     0.00    0.00    0.00    0.00
  210    4.80    0.00    2.31    0.16    0.03    0.00   88.61    3.29    4.02    2.48    0.00    0.00    0.00    0.00    0.00     0.00    0.00    0.00    0.00
  211    0.50    0.00    0.82    0.16    0.00    0.00   86.78    2.33    3.88    1.00    0.00    0.00    0.00    0.00    0.00     0.00    0.00    0.00    0.00
  212    2.80    0.00    0.75    0.16    0.00    0.00   86.33    2.56    3.59    0.92    0.00    0.00    0.00    0.00    0.00     0.00    0.00    0.00    0.00
    7  248.80   19.00  134.50    3.95    8.93    0.00   86.33   74.79  103.18  157.81    0.04    0.00    0.22    0.10    0.02     0.11    0.00    0.01    0.00
  213    9.70    0.01    2.95    0.17    0.16    0.00   89.05    2.65    2.80    3.14    0.00    0.00    0.00    0.00    0.00     0.00    0.00    0.00    0.00
  214    0.30    0.00    1.04    0.17    0.00    0.00   87.72    1.64    2.71    1.22    0.00    0.00    0.00    0.00    0.00     0.00    0.00    0.00    0.00
  215   21.10    1.65    8.53    0.17    0.97    0.00   91.63    1.93    2.01   10.36    0.01    0.00    0.01    0.01    0.00     0.02    0.00    0.00    0.00
  216   14.00    0.31    9.28    0.17    0.91    0.00   91.42    3.28    3.81    9.77    0.00    0.00    0.02    0.01    0.00     0.00    0.00    0.00    0.00
  217   16.50    0.72   10.11    0.18    0.95    0.00   92.46    3.19    3.65   11.02    0.00    0.00    0.02    0.01    0.00     0.00    0.00    0.00    0.00
  218    4.80    0.00    4.69    0.18    0.06    0.00   92.12    3.34    3.91    4.88    0.00    0.00    0.01    0.00    0.00     0.00    0.00    0.00    0.00
  219    0.00    0.00    1.67    0.18    0.00    0.00   89.35    2.77    5.49    1.86    0.00    0.00    0.00    0.00    0.00     0.00    0.00    0.00    0.00
  220    0.50    0.00    0.61    0.18    0.00    0.00   87.08    2.77    6.29    0.80    0.00    0.00    0.00    0.00    0.00     0.00    0.00    0.00    0.00
  221    7.10    0.00    1.83    0.18    0.00    0.00   88.32    3.41    5.26    2.02    0.00    0.00    0.00    0.00    0.00     0.00    0.00    0.00    0.00
  222   74.70   34.28   18.82    0.19    2.81    0.00   95.02    2.68    2.79   53.30    0.14    0.00    0.03    0.04    0.00     0.32    0.00    0.04    0.00
  223    0.00    0.00    6.63    0.19    0.00    0.00   92.93    2.09    3.76    6.83    0.00    0.00    0.01    0.00    0.00     0.00    0.00    0.00    0.00
  224    0.30    0.00    2.37    0.19    0.00    0.00   91.77    1.46    2.92    2.57    0.00    0.00    0.00    0.00    0.00     0.00    0.00    0.00    0.00
  225    0.00    0.00    0.87    0.20    0.00    0.00   90.26    1.51    3.71    1.07    0.00    0.00    0.00    0.00    0.00     0.00    0.00    0.00    0.00
  226    0.00    0.00    0.33    0.20    0.00    0.00   88.66    1.60    4.67    0.54    0.00    0.00    0.00    0.00    0.00     0.00    0.00    0.00    0.00
  227   30.00    5.09    9.46    0.20    1.06    0.00   93.92    4.14    5.21   14.77    0.03    0.00    0.01    0.01    0.00     0.06    0.00    0.01    0.00
  228  103.10   60.10   24.07    0.21    4.04    0.00   97.45    3.19    3.60   84.38    0.56    0.00    0.03    0.05    0.00     1.32    0.00    0.16    0.00
  229   88.60   48.98   28.11    0.22    4.08    0.00  100.89    1.61    1.67   77.33    0.00    0.00    0.04    0.05    0.00     0.42    0.00    0.05    0.00
  230    8.10    0.01   13.62    0.23    0.64    0.00  100.94    1.74    1.80   13.87    0.00    0.00    0.02    0.01    0.00     0.00    0.00    0.00    0.00
  231   37.60   10.96   18.71    0.24    3.09    0.00  101.33    1.71    1.76   29.93    0.03    0.00    0.02    0.03    0.00     0.07    0.00    0.01    0.00
  232    0.50    0.00    6.64    0.25    0.00    0.00  100.71    1.12    1.42    6.90    0.00    0.00    0.01    0.00    0.00     0.00    0.00    0.00    0.00
  233   13.00    0.36    8.32    0.26    1.12    0.00  100.52    2.56    2.65    8.96    0.00    0.00    0.01    0.01    0.00     0.01    0.00    0.00    0.00
  234    0.00    0.00    2.96    0.27    0.00    0.00   97.51    3.00    5.41    3.25    0.00    0.00    0.00    0.00    0.00     0.00    0.00    0.00    0.00
  235    0.00    0.00    1.08    0.28    0.00    0.00   95.71    1.80    4.37    1.37    0.00    0.00    0.00    0.00    0.00     0.00    0.00    0.00    0.00
  236    1.30    0.00    0.41    0.29    0.00    0.00   94.75    2.26    3.48    0.71    0.00    0.00    0.00    0.00    0.00     0.00    0.00    0.00    0.00
  237    0.80    0.00    0.16    0.30    0.00    0.00   93.54    2.01    3.63    0.47    0.00    0.00    0.00    0.00    0.00     0.00    0.00    0.00    0.00
  238   30.20    5.81    8.99    0.31    1.03    0.00  100.01    3.06    3.34   15.12    0.03    0.00    0.01    0.01    0.00     0.06    0.00    0.01    0.00
  239    0.50    0.00    3.16    0.31    0.00    0.00   98.00    2.51    3.83    3.49    0.00    0.00    0.00    0.00    0.00     0.00    0.00    0.00    0.00
  240    0.00    0.00    1.13    0.32    0.00    0.00   96.20    1.80    4.00    1.46    0.00    0.00    0.00    0.00    0.00     0.00    0.00    0.00    0.00
  241    0.00    0.00    0.41    0.32    0.00    0.00   94.73    1.47    3.94    0.75    0.00    0.00    0.00    0.00    0.00     0.00    0.00    0.00    0.00
  242    0.00    0.00    0.16    0.33    0.00    0.00   92.98    1.75    5.28    0.50    0.00    0.00    0.00    0.00    0.00     0.00    0.00    0.00    0.00
  243    5.10    0.00    1.09    0.33    0.00    0.00   94.15    2.35    3.58    1.44    0.00    0.00    0.00    0.00    0.00     0.00    0.00    0.00    0.00
    8  467.80  168.28  198.21    7.21   20.92    0.00   94.15   72.39  112.78  374.10    0.80    0.01    0.26    0.25    0.01     2.28    0.01    0.28    0.00
  244   44.70   14.23   13.01    0.33    1.94    0.00  100.19    2.90    3.07   27.58    0.10    0.00    0.01    0.02    0.00     0.22    0.00    0.03    0.00
  245    2.80    0.00    5.05    0.34    0.00    0.00   99.72    2.54    2.65    5.41    0.00    0.00    0.01    0.00    0.00     0.00    0.00    0.00    0.00
  246    1.30    0.00    1.87    0.34    0.00    0.00   99.22    1.69    1.74    2.23    0.00    0.00    0.00    0.00    0.00     0.00    0.00    0.00    0.00
  247    0.00    0.00    0.68    0.34    0.00    0.00   97.29    1.93    3.45    1.04    0.00    0.00    0.00    0.00    0.00     0.00    0.00    0.00    0.00
  248    0.00    0.00    0.25    0.35    0.00    0.00   95.47    1.82    4.25    0.61    0.00    0.00    0.00    0.00    0.00     0.00    0.00    0.00    0.00
  249    0.00    0.00    0.10    0.35    0.00    0.00   93.81    1.66    4.63    0.46    0.00    0.00    0.00    0.00    0.00     0.00    0.00    0.00    0.00
  250   25.10    3.55    7.58    0.35    0.77    0.00   98.57    4.34    5.44   11.49    0.02    0.00    0.01    0.01    0.00     0.04    0.00    0.01    0.00
  251   12.70    0.27    7.39    0.35    0.61    0.00  100.03    3.05    3.32    8.03    0.00    0.00    0.01    0.01    0.00     0.00    0.00    0.00    0.00
  252    7.40    0.00    5.19    0.35    0.33    0.00  100.16    2.93    3.11    5.56    0.00    0.00    0.01    0.00    0.00     0.00    0.00    0.00    0.00
  253    3.60    0.00    2.54    0.35    0.02    0.00   98.92    3.75    4.52    2.91    0.00    0.00    0.00    0.00    0.00     0.00    0.00    0.00    0.00
  254    0.30    0.00    0.91    0.35    0.00    0.00   95.92    3.30    6.18    1.27    0.00    0.00    0.00    0.00    0.00     0.00    0.00    0.00    0.00
  255    1.30    0.00    0.36    0.35    0.00    0.00   93.63    3.54    6.85    0.73    0.00    0.00    0.00    0.00    0.00     0.00    0.00    0.00    0.00
  256    8.40    0.00    2.13    0.35    0.00    0.00   95.05    3.92    5.95    2.50    0.00    0.00    0.00    0.00    0.00     0.00    0.00    0.00    0.00
  257    0.30    0.00    0.74    0.35    0.00    0.00   92.99    2.36    5.13    1.11    0.00    0.00    0.00    0.00    0.00     0.00    0.00    0.00    0.00
  258    2.30    0.00    0.57    0.35    0.00    0.00   92.06    2.76    5.00    0.93    0.00    0.00    0.00    0.00    0.00     0.00    0.00    0.00    0.00
  259    3.30    0.00    0.81    0.35    0.00    0.00   91.51    2.91    5.40    1.17    0.00    0.00    0.00    0.00    0.00     0.00    0.00    0.00    0.00
  260    5.60    0.00    1.52    0.34    0.00    0.00   92.74    2.47    3.57    1.88    0.00    0.00    0.00    0.00    0.00     0.00    0.00    0.00    0.00
  261   16.50    0.77    5.62    0.34    0.30    0.00   96.32    3.97    4.90    6.74    0.01    0.00    0.00    0.00    0.00     0.01    0.00    0.00    0.00
  262    0.30    0.00    1.97    0.34    0.00    0.00   94.21    2.41    4.40    2.32    0.00    0.00    0.00    0.00    0.00     0.00    0.00    0.00    0.00
  263    0.30    0.00    0.70    0.33    0.00    0.00   91.75    2.75    6.44    1.05    0.00    0.00    0.00    0.00    0.00     0.00    0.00    0.00    0.00
  264   14.70    0.40    4.32    0.33    0.21    0.00   95.91    3.64    4.36    5.08    0.00    0.00    0.00    0.00    0.00     0.01    0.00    0.00    0.00
  265    1.50    0.00    1.64    0.33    0.00    0.00   94.03    3.20    4.55    1.99    0.00    0.00    0.00    0.00    0.00     0.00    0.00    0.00    0.00
  266    0.30    0.00    0.58    0.33    0.00    0.00   91.18    3.14    6.91    0.92    0.00    0.00    0.00    0.00    0.00     0.00    0.00    0.00    0.00
  267    0.00    0.00    0.21    0.32    0.00    0.00   88.94    2.25    6.88    0.55    0.00    0.00    0.00    0.00    0.00     0.00    0.00    0.00    0.00
  268    0.50    0.00    0.08    0.32    0.00    0.00   87.09    2.35    7.19    0.41    0.00    0.00    0.00    0.00    0.00     0.00    0.00    0.00    0.00
  269    0.00    0.00    0.03    0.31    0.00    0.00   85.22    1.87    7.49    0.36    0.00    0.00    0.00    0.00    0.00     0.00    0.00    0.00    0.00
  270    0.00    0.00    0.01    0.31    0.00    0.00   83.48    1.74    8.05    0.34    0.00    0.00    0.00    0.00    0.00     0.00    0.00    0.00    0.00
  271   10.90    0.01    2.61    0.30    0.00    0.00   87.34    3.03    5.93    2.94    0.00    0.00    0.00    0.00    0.00     0.00    0.00    0.00    0.00
  272    0.30    0.00    0.91    0.30    0.00    0.00   86.05    1.59    4.02    1.22    0.00    0.00    0.00    0.00    0.00     0.00    0.00    0.00    0.00
  273    2.30    0.00    0.62    0.30    0.00    0.00   85.39    2.50    5.20    0.93    0.00    0.00    0.00    0.00    0.00     0.00    0.00    0.00    0.00
    9  166.70   19.24   70.00   10.06    4.18    0.00   85.39   82.31  150.55   99.76    0.13    0.00    0.06    0.05    0.00     0.29    0.00    0.04    0.00
  274    0.00    0.00    0.22    0.29    0.00    0.00   83.88    1.51    5.17    0.52    0.00    0.00    0.00    0.00    0.00     0.00    0.00    0.00    0.00
  275    7.10    0.00    1.66    0.29    0.00    0.00   86.27    2.27    3.73    1.97    0.00    0.00    0.00    0.00    0.00     0.00    0.00    0.00    0.00
  276    0.50    0.00    0.58    0.28    0.00    0.00   84.83    1.95    4.50    0.87    0.00    0.00    0.00    0.00    0.00     0.00    0.00    0.00    0.00
  277    0.00    0.00    0.20    0.28    0.00    0.00   83.11    1.72    5.98    0.49    0.00    0.00    0.00    0.00    0.00     0.00    0.00    0.00    0.00
  278    0.50    0.00    0.07    0.27    0.00    0.00   81.82    1.79    5.74    0.36    0.00    0.00    0.00    0.00    0.00     0.00    0.00    0.00    0.00
  279    1.50    0.00    0.11    0.25    0.00    0.00   81.31    1.88    3.84    0.37    0.00    0.00    0.00    0.00    0.00     0.00    0.00    0.00    0.00
  280    2.50    0.00    0.43    0.24    0.00    0.00   81.18    2.02    4.35    0.69    0.00    0.00    0.00    0.00    0.00     0.00    0.00    0.00    0.00
  281    0.30    0.00    0.15    0.23    0.00    0.00   80.42    1.06    3.22    0.40    0.00    0.00    0.00    0.00    0.00     0.00    0.00    0.00    0.00
  282    0.50    0.00    0.05    0.23    0.00    0.00   79.47    1.45    4.46    0.30    0.00    0.00    0.00    0.00    0.00     0.00    0.00    0.00    0.00
  283   72.40   29.67   15.30    0.22    1.30    0.00   93.51    3.67    4.39   45.20    0.27    0.00    0.02    0.02    0.00     0.59    0.00    0.07    0.00
  284    9.90    0.01    8.88    0.22    0.29    0.00   93.94    3.78    4.57    9.12    0.00    0.00    0.02    0.00    0.00     0.00    0.00    0.00    0.00
  285    0.30    0.00    3.14    0.22    0.00    0.00   91.80    2.44    4.36    3.38    0.00    0.00    0.01    0.00    0.00     0.00    0.00    0.00    0.00
  286    6.10    0.00    2.47    0.21    0.00    0.00   92.27    3.58    4.78    2.69    0.00    0.00    0.00    0.00    0.00     0.00    0.00    0.00    0.00
  287    0.30    0.00    0.88    0.20    0.00    0.00   89.62    2.95    6.01    1.10    0.00    0.00    0.00    0.00    0.00     0.00    0.00    0.00    0.00
  288   43.70   12.64   12.99    0.20    1.43    0.00   95.50    4.09    5.05   25.85    0.10    0.00    0.03    0.02    0.00     0.21    0.00    0.03    0.00
  289    0.00    0.00    4.58    0.20    0.00    0.00   92.85    2.65    5.45    4.79    0.00    0.00    0.01    0.00    0.00     0.00    0.00    0.00    0.00
  290    2.30    0.00    1.92    0.20    0.00    0.00   91.57    3.14    5.42    2.14    0.00    0.00    0.00    0.00    0.00     0.00    0.00    0.00    0.00
  291    2.00    0.00    0.96    0.20    0.00    0.00   89.75    3.43    6.87    1.17    0.00    0.00    0.00    0.00    0.00     0.00    0.00    0.00    0.00
  292   27.40    4.08    8.60    0.20    0.77    0.00   95.44    4.08    5.03   12.89    0.06    0.00    0.01    0.01    0.00     0.13    0.00    0.02    0.00
  293    6.10    0.00    4.52    0.20    0.07    0.00   94.92    4.24    5.32    4.73    0.00    0.00    0.00    0.00    0.00     0.00    0.00    0.00    0.00
  294    0.00    0.00    1.60    0.20    0.00    0.00   92.25    2.67    5.61    1.81    0.00    0.00    0.00    0.00    0.00     0.00    0.00    0.00    0.00
  295    0.00    0.00    0.58    0.19    0.00    0.00   90.28    1.97    5.42    0.79    0.00    0.00    0.00    0.00    0.00     0.00    0.00    0.00    0.00
  296    0.00    0.00    0.22    0.19    0.00    0.00   88.08    2.21    7.17    0.42    0.00    0.00    0.00    0.00    0.00     0.00    0.00    0.00    0.00
  297    1.00    0.00    0.08    0.19    0.00    0.00   86.66    2.42    6.13    0.29    0.00    0.00    0.00    0.00    0.00     0.00    0.00    0.00    0.00
  298    0.00    0.00    0.03    0.19    0.00    0.00   85.01    1.65    6.25    0.24    0.00    0.00    0.00    0.00    0.00     0.00    0.00    0.00    0.00
  299    0.00    0.00    0.02    0.19    0.00    0.00   83.61    1.40    6.24    0.22    0.00    0.00    0.00    0.00    0.00     0.00    0.00    0.00    0.00
  300    0.00    0.00    0.01    0.18    0.00    0.00   81.99    1.62    7.97    0.21    0.00    0.00    0.00    0.00    0.00     0.00    0.00    0.00    0.00
  301    0.00    0.00    0.00    0.18    0.00    0.00   80.71    1.28    6.87    0.20    0.00    0.00    0.00    0.00    0.00     0.00    0.00    0.00    0.00
  302    0.30    0.00    0.00    0.18    0.00    0.00   79.92    1.09    4.85    0.20    0.00    0.00    0.00    0.00    0.00     0.00    0.00    0.00    0.00
  303   12.70    0.03    3.10    0.18    0.00    0.00   85.31    2.53    4.76    3.32    0.00    0.00    0.00    0.00    0.00     0.00    0.00    0.00    0.00
  304   37.10    8.10   11.48    0.18    0.84    0.00   93.75    3.58    4.22   19.77    0.25    0.00    0.01    0.01    0.00     0.49    0.00    0.06    0.00
   10  234.50   54.54   84.82    6.66    4.70    0.00   93.75   76.10  163.72  146.49    0.68    0.01    0.12    0.08    0.00     1.42    0.00    0.17    0.00
  305    1.30    0.00    4.10    0.18    0.00    0.00   91.29    3.65    5.52    4.29    0.00    0.00    0.01    0.00    0.00     0.00    0.00    0.00    0.00
  306    3.60    0.00    2.15    0.17    0.00    0.00   91.62    2.20    2.63    2.34    0.00    0.00    0.00    0.00    0.00     0.00    0.00    0.00    0.00
  307    0.00    0.00    0.77    0.17    0.00    0.00   88.98    2.65    6.11    0.96    0.00    0.00    0.00    0.00    0.00     0.00    0.00    0.00    0.00
  308    0.00    0.00    0.28    0.17    0.00    0.00   86.46    2.52    7.63    0.47    0.00    0.00    0.00    0.00    0.00     0.00    0.00    0.00    0.00
  309    0.00    0.00    0.11    0.17    0.00    0.00   84.47    1.99    7.33    0.29    0.00    0.00    0.00    0.00    0.00     0.00    0.00    0.00    0.00
  310    0.00    0.00    0.04    0.17    0.00    0.00   82.75    1.72    7.26    0.22    0.00    0.00    0.00    0.00    0.00     0.00    0.00    0.00    0.00
  311    0.00    0.00    0.02    0.16    0.00    0.00   81.24    1.51    7.06    0.20    0.00    0.00    0.00    0.00    0.00     0.00    0.00    0.00    0.00
  312    3.00    0.00    0.47    0.16    0.00    0.00   81.07    2.46    6.63    0.64    0.00    0.00    0.00    0.00    0.00     0.00    0.00    0.00    0.00
  313    5.30    0.00    1.32    0.16    0.00    0.00   82.23    2.37    5.37    1.49    0.00    0.00    0.00    0.00    0.00     0.00    0.00    0.00    0.00
  314    3.60    0.00    1.15    0.16    0.00    0.00   82.91    1.86    3.14    1.32    0.00    0.00    0.00    0.00    0.00     0.00    0.00    0.00    0.00
  315    3.00    0.00    0.93    0.16    0.00    0.00   82.92    2.17    4.07    1.10    0.00    0.00    0.00    0.00    0.00     0.00    0.00    0.00    0.00
  316    1.30    0.00    0.40    0.15    0.00    0.00   82.06    2.05    3.89    0.56    0.00    0.00    0.00    0.00    0.00     0.00    0.00    0.00    0.00
  317   38.40    8.24   10.63    0.15    0.78    0.00   91.52    3.65    4.37   19.03    0.14    0.00    0.01    0.01    0.00     0.31    0.00    0.04    0.00
  318    0.00    0.00    3.74    0.15    0.00    0.00   89.74    1.79    3.45    3.90    0.00    0.00    0.01    0.00    0.00     0.00    0.00    0.00    0.00
  319    0.00    0.00    1.33    0.15    0.00    0.00   89.13    0.61    1.44    1.49    0.00    0.00    0.00    0.00    0.00     0.00    0.00    0.00    0.00
  320    0.00    0.00    0.48    0.15    0.00    0.00   87.06    2.07    5.47    0.64    0.00    0.00    0.00    0.00    0.00     0.00    0.00    0.00    0.00
  321    0.00    0.00    0.18    0.14    0.00    0.00   85.84    1.22    3.83    0.34    0.00    0.00    0.00    0.00    0.00     0.00    0.00    0.00    0.00
  322    9.40    0.01    2.27    0.14    0.00    0.00   88.18    3.67    5.34    2.43    0.00    0.00    0.00    0.00    0.00     0.00    0.00    0.00    0.00
  323    4.80    0.00    1.81    0.14    0.00    0.00   87.16    4.25    6.50    1.97    0.00    0.00    0.00    0.00    0.00     0.00    0.00    0.00    0.00
  324    8.60    0.00    2.78    0.14    0.04    0.00   89.62    2.78    3.01    2.94    0.00    0.00    0.00    0.00    0.00     0.00    0.00    0.00    0.00
  325    2.30    0.00    1.32    0.14    0.00    0.00   87.87    3.52    4.73    1.47    0.00    0.00    0.00    0.00    0.00     0.00    0.00    0.00    0.00
  326    3.30    0.00    1.08    0.14    0.00    0.00   87.33    2.90    3.88    1.23    0.00    0.00    0.00    0.00    0.00     0.00    0.00    0.00    0.00
  327    0.30    0.00    0.38    0.13    0.00    0.00   85.44    2.20    4.40    0.53    0.00    0.00    0.00    0.00    0.00     0.00    0.00    0.00    0.00
  328   48.30   14.57   13.94    0.13    1.58    0.00   92.45    3.70    4.43   28.65    0.30    0.00    0.03    0.03    0.00     0.64    0.00    0.08    0.00
  329    0.00    0.00    4.90    0.13    0.00    0.00   89.90    2.55    5.11    5.05    0.00    0.00    0.01    0.00    0.00     0.00    0.00    0.00    0.00
  330    0.00    0.00    1.75    0.13    0.00    0.00   87.45    2.45    6.47    1.90    0.00    0.00    0.00    0.00    0.00     0.00    0.00    0.00    0.00
  331    5.30    0.00    1.72    0.13    0.00    0.00   87.67    3.42    6.03    1.87    0.00    0.00    0.00    0.00    0.00     0.00    0.00    0.00    0.00
  332    6.10    0.00    1.99    0.13    0.00    0.00   88.31    3.34    5.11    2.13    0.00    0.00    0.00    0.00    0.00     0.00    0.00    0.00    0.00
  333    0.50    0.00    0.70    0.13    0.00    0.00   85.98    2.83    6.09    0.85    0.00    0.00    0.00    0.00    0.00     0.00    0.00    0.00    0.00
  334   32.50    5.89   10.18    0.13    0.94    0.00   92.96    3.32    3.78   16.20    0.20    0.00    0.02    0.02    0.00     0.38    0.00    0.05    0.00
   11  180.90   28.70   72.93    4.48    3.35    0.00   92.96   77.41  150.07  106.51    0.65    0.00    0.11    0.07    0.00     1.32    0.00    0.16    0.00
  335   10.90    0.04    7.76    0.13    0.44    0.00   93.01    3.91    4.75    7.94    0.00    0.00    0.02    0.01    0.00     0.00    0.00    0.00    0.00
  336    0.30    0.00    2.74    0.13    0.00    0.00   92.05    1.26    2.21    2.88    0.00    0.00    0.01    0.00    0.00     0.00    0.00    0.00    0.00
  337    5.80    0.00    2.29    0.13    0.01    0.00   91.68    4.15    5.43    2.43    0.00    0.00    0.00    0.00    0.00     0.00    0.00    0.00    0.00
  338    2.30    0.00    1.16    0.13    0.00    0.00   90.12    3.34    5.02    1.30    0.00    0.00    0.00    0.00    0.00     0.00    0.00    0.00    0.00
  339    4.30    0.00    1.30    0.13    0.00    0.00   89.85    3.21    4.69    1.44    0.00    0.00    0.00    0.00    0.00     0.00    0.00    0.00    0.00
  340   22.60    2.26    8.31    0.13    0.87    0.00   93.14    4.02    4.92   10.71    0.13    0.00    0.02    0.02    0.00     0.22    0.00    0.03    0.00
  341   14.50    0.41    8.53    0.13    0.65    0.00   94.69    3.22    3.60    9.08    0.00    0.00    0.02    0.01    0.00     0.03    0.00    0.00    0.00
  342    0.50    0.00    3.00    0.14    0.00    0.00   92.35    2.84    4.59    3.15    0.00    0.00    0.01    0.00    0.00     0.00    0.00    0.00    0.00
  343   50.50   17.64   15.75    0.14    2.28    0.00   96.75    3.40    3.87   33.54    0.97    0.00    0.04    0.05    0.00     1.61    0.00    0.20    0.00
  344   21.60    2.44   14.18    0.14    1.37    0.00   97.82    3.37    3.80   16.77    0.00    0.00    0.03    0.03    0.00     0.13    0.00    0.02    0.00
  345   41.10   12.60   18.64    0.15    2.57    0.00  100.31    2.30    2.33   31.40    1.04    0.00    0.04    0.05    0.00     1.52    0.00    0.19    0.00
  346    1.30    0.00    6.66    0.15    0.00    0.00   98.54    2.96    3.52    6.83    0.00    0.00    0.01    0.00    0.00     0.00    0.00    0.00    0.00
  347   17.50    1.26    9.31    0.16    1.13    0.00   99.79    3.16    3.44   10.75    0.05    0.00    0.02    0.02    0.00     0.09    0.00    0.01    0.00
  348    8.40    0.01    6.40    0.16    0.43    0.00   98.98    3.99    4.78    6.59    0.00    0.00    0.01    0.01    0.00     0.00    0.00    0.00    0.00
  349    1.50    0.00    2.40    0.17    0.00    0.00   96.90    3.39    4.93    2.59    0.00    0.00    0.00    0.00    0.00     0.00    0.00    0.00    0.00
  350    1.00    0.00    0.87    0.17    0.00    0.00   94.39    3.50    6.39    1.06    0.00    0.00    0.00    0.00    0.00     0.00    0.00    0.00    0.00
  351    6.60    0.00    1.83    0.18    0.00    0.00   94.11    4.58    7.73    2.02    0.00    0.00    0.00    0.00    0.00     0.00    0.00    0.00    0.00
  352    3.30    0.00    1.26    0.18    0.00    0.00   92.52    3.94    7.43    1.45    0.00    0.00    0.00    0.00    0.00     0.00    0.00    0.00    0.00
  353    0.00    0.00    0.45    0.18    0.00    0.00   89.99    2.53    7.48    0.64    0.00    0.00    0.00    0.00    0.00     0.00    0.00    0.00    0.00
  354    6.40    0.00    1.56    0.18    0.00    0.00   90.86    3.39    6.55    1.76    0.00    0.00    0.00    0.00    0.00     0.00    0.00    0.00    0.00
  355    6.60    0.00    2.05    0.19    0.00    0.00   92.05    3.09    4.80    2.25    0.00    0.00    0.00    0.00    0.00     0.00    0.00    0.00    0.00
  356    0.00    0.00    0.72    0.19    0.00    0.00   90.06    1.99    5.03    0.92    0.00    0.00    0.00    0.00    0.00     0.00    0.00    0.00    0.00
  357    3.30    0.00    0.81    0.19    0.00    0.00   90.22    2.28    3.55    1.01    0.00    0.00    0.00    0.00    0.00     0.00    0.00    0.00    0.00
  358   16.30    0.64    5.04    0.19    0.11    0.00   94.85    3.58    4.25    5.88    0.01    0.00    0.00    0.00    0.00     0.02    0.00    0.00    0.00
  359    3.30    0.00    2.38    0.19    0.00    0.00   94.28    2.94    3.52    2.58    0.00    0.00    0.00    0.00    0.00     0.00    0.00    0.00    0.00
  360    2.00    0.00    1.10    0.19    0.00    0.00   93.20    2.68    3.43    1.30    0.00    0.00    0.00    0.00    0.00     0.00    0.00    0.00    0.00
  361    1.00    0.00    0.39    0.19    0.00    0.00   91.40    2.80    4.39    0.60    0.00    0.00    0.00    0.00    0.00     0.00    0.00    0.00    0.00
  362    0.00    0.00    0.14    0.19    0.00    0.00   89.33    2.07    5.34    0.35    0.00    0.00    0.00    0.00    0.00     0.00    0.00    0.00    0.00
  363    7.10    0.00    1.64    0.19    0.00    0.00   90.39    3.61    5.82    1.84    0.00    0.00    0.00    0.00    0.00     0.00    0.00    0.00    0.00
  364    1.00    0.00    0.57    0.19    0.00    0.00   89.09    2.29    3.69    0.78    0.00    0.00    0.00    0.00    0.00     0.00    0.00    0.00    0.00
  365   48.80   15.77   13.06    0.20    1.47    0.00   96.80    3.87    4.62   29.04    1.17    0.00    0.02    0.03    0.00     1.70    0.00    0.21    0.00
   12  309.80   53.07  142.29    5.15   11.32    0.00   96.80   97.66  145.89  200.89    3.37    0.00    0.26    0.23    0.00     5.32    0.00    0.65    0.00

 2013 3096.30  678.70 1379.94   84.97  106.61    0.00   96.80  920.45 1500.18 2149.74   16.16    0.04    1.97    1.91    7.27    40.21    0.04    4.92    0.00
1
    SWAT Dec 23 2016    VER 2016/Rev 664                                            

    General Input/Output section (file.cio):                                        
    2/12/2020 14:36:37 QSWAT Workflow v1.5.2                                        
                                                                                    
Annual Summary for Watershed in year    5 of simulation

UNIT                                    PERCO    TILE                           WATER     SED     NO3     NO3     NO3     NO3        N       P       P
TIME     PREC    SURQ    LATQ     GWQ    LATE       Q     SW       ET     PET   YIELD   YIELD    SURQ    LATQ    PERC    CROP  ORGANIC SOLUBLE ORGANIC TILENO3
         (mm)    (mm)    (mm)    (mm)    (mm)    (mm)    (mm)    (mm)    (mm)    (mm)   (t/ha)  ------------------(kg nutrient/ha)-------------------- (kg/ha)
    1   88.40   48.60   23.76    0.20    3.77    0.00  100.84    2.19    2.21   72.57    2.78    0.00    0.05    0.08    0.00     9.91    0.00    1.21    0.00
    2   60.50   27.09   25.76    0.21    4.19    0.00  100.64    2.47    2.49   53.08    0.00    0.00    0.06    0.08    0.00     4.92    0.00    0.60    0.00
    3   51.10   20.00   25.13    0.22    3.79    0.00   99.58    3.53    4.02   45.37    1.50    0.00    0.06    0.08    0.00     3.24    0.00    0.40    0.00
    4   32.50    7.78   20.94    0.23    2.56    0.00   99.40    3.72    4.33   28.96    0.00    0.00    0.04    0.05    0.00     0.64    0.00    0.08    0.00
    5    3.60    0.00    8.13    0.24    0.00    0.00   98.61    3.32    4.01    8.39    0.00    0.00    0.02    0.00    0.00     0.00    0.00    0.00    0.00
    6   38.60   11.19   15.96    0.26    2.70    0.00  100.72    2.40    2.42   27.43    0.72    0.00    0.03    0.05    0.00     1.53    0.00    0.19    0.00
    7   32.30    7.82   18.10    0.27    2.82    0.00  100.48    2.64    2.66   26.21    0.00    0.00    0.03    0.06    0.00     1.02    0.00    0.12    0.00
    8   29.50    6.29   18.04    0.29    2.56    0.00  100.23    2.89    3.00   24.63    0.32    0.00    0.03    0.05    0.00     0.69    0.00    0.08    0.00
    9   29.20    6.11   17.83    0.30    2.47    0.00  100.37    2.76    2.79   24.26    0.03    0.00    0.03    0.05    0.00     0.74    0.00    0.09    0.00
   10    2.50    0.00    6.71    0.32    0.00    0.00   99.08    3.18    3.70    7.04    0.00    0.00    0.01    0.00    0.00     0.00    0.00    0.00    0.00
   11    1.30    0.00    2.49    0.33    0.00    0.00   97.38    2.89    3.85    2.83    0.00    0.00    0.00    0.00    0.00     0.00    0.00    0.00    0.00
   12    0.50    0.00    0.92    0.34    0.00    0.00   95.55    2.33    4.20    1.27    0.00    0.00    0.00    0.00    0.00     0.00    0.00    0.00    0.00
   13    0.50    0.00    0.35    0.35    0.00    0.00   93.80    2.26    4.86    0.72    0.00    0.00    0.00    0.00    0.00     0.00    0.00    0.00    0.00
   14    7.10    0.00    1.75    0.36    0.00    0.00   94.63    3.80    6.05    2.13    0.00    0.00    0.00    0.00    0.00     0.00    0.00    0.00    0.00
   15    0.00    0.00    0.62    0.37    0.00    0.00   92.03    2.59    6.63    1.01    0.00    0.00    0.00    0.00    0.00     0.00    0.00    0.00    0.00
   16   45.50   14.31   12.25    0.38    1.52    0.00   98.66    4.36    5.37   26.96    1.47    0.00    0.01    0.02    0.00     2.66    0.00    0.33    0.00
   17    0.50    0.00    4.32    0.39    0.00    0.00   96.62    2.53    4.28    4.72    0.00    0.00    0.00    0.00    0.00     0.00    0.00    0.00    0.00
   18    0.00    0.00    1.54    0.40    0.00    0.00   94.66    1.96    4.81    1.96    0.00    0.00    0.00    0.00    0.00     0.00    0.00    0.00    0.00
   19    2.80    0.00    0.98    0.40    0.00    0.00   93.90    2.92    5.15    1.40    0.00    0.00    0.00    0.00    0.00     0.00    0.00    0.00    0.00
   20    8.10    0.00    2.27    0.41    0.00    0.00   95.43    3.63    5.20    2.70    0.00    0.00    0.00    0.00    0.00     0.00    0.00    0.00    0.00
   21    1.00    0.00    0.80    0.41    0.00    0.00   93.26    3.17    5.50    1.23    0.00    0.00    0.00    0.00    0.00     0.00    0.00    0.00    0.00
   22    5.30    0.00    1.44    0.41    0.00    0.00   92.89    3.90    6.58    1.87    0.00    0.00    0.00    0.00    0.00     0.00    0.00    0.00    0.00
   23    1.30    0.00    0.58    0.42    0.00    0.00   90.59    3.49    7.09    1.01    0.00    0.00    0.00    0.00    0.00     0.00    0.00    0.00    0.00
   24   11.20    0.03    2.97    0.42    0.00    0.00   93.30    4.20    5.80    3.44    0.00    0.00    0.00    0.00    0.00     0.00    0.00    0.00    0.00
   25   44.40   13.84   13.73    0.42    1.62    0.00   99.33    3.20    3.49   28.00    0.67    0.00    0.01    0.02    0.00     1.40    0.00    0.17    0.00
   26   33.80    8.47   17.13    0.43    2.49    0.00   99.83    3.30    3.64   26.04    0.12    0.00    0.03    0.05    0.00     1.37    0.00    0.17    0.00
   27    5.60    0.00    7.53    0.43    0.10    0.00   98.43    4.59    5.73    7.98    0.00    0.00    0.01    0.00    0.00     0.00    0.00    0.00    0.00
   28    0.50    0.00    2.69    0.43    0.00    0.00   95.99    2.95    5.31    3.14    0.00    0.00    0.00    0.00    0.00     0.00    0.00    0.00    0.00
   29    0.80    0.00    0.98    0.44    0.00    0.00   93.95    2.84    5.70    1.43    0.00    0.00    0.00    0.00    0.00     0.00    0.00    0.00    0.00
   30    4.80    0.00    1.37    0.44    0.00    0.00   93.79    3.42    6.09    1.82    0.00    0.00    0.00    0.00    0.00     0.00    0.00    0.00    0.00
   31    6.40    0.00    1.94    0.44    0.00    0.00   94.28    3.68    5.78    2.40    0.00    0.00    0.00    0.00    0.00     0.00    0.00    0.00    0.00
    1  549.60  171.55  259.00   10.96   30.58    0.00   94.28   97.13  142.72  442.01    7.62    0.00    0.46    0.62    0.00    28.12    0.01    3.44    0.00
   32    1.00    0.00    0.69    0.44    0.00    0.00   92.31    2.97    5.40    1.14    0.00    0.00    0.00    0.00    0.00     0.00    0.00    0.00    0.00
   33    3.00    0.00    0.78    0.44    0.00    0.00   90.99    3.50    7.01    1.23    0.00    0.00    0.00    0.00    0.00     0.00    0.00    0.00    0.00
   34    0.50    0.00    0.27    0.44    0.00    0.00   89.05    2.44    6.30    0.73    0.00    0.00    0.00    0.00    0.00     0.00    0.00    0.00    0.00
   35    0.00    0.00    0.10    0.43    0.00    0.00   87.29    1.76    6.38    0.55    0.00    0.00    0.00    0.00    0.00     0.00    0.00    0.00    0.00
   36    0.00    0.00    0.04    0.43    0.00    0.00   85.79    1.50    6.33    0.49    0.00    0.00    0.00    0.00    0.00     0.00    0.00    0.00    0.00
   37    0.00    0.00    0.01    0.43    0.00    0.00   84.83    0.96    4.48    0.46    0.00    0.00    0.00    0.00    0.00     0.00    0.00    0.00    0.00
   38    0.00    0.00    0.01    0.43    0.00    0.00   83.27    1.56    5.43    0.45    0.00    0.00    0.00    0.00    0.02     0.00    0.00    0.00    0.00
   39   25.10    2.62    6.02    0.42    0.01    0.00   91.24    5.22    6.63    9.08    0.23    0.00    0.00    0.00    0.38     0.39    0.00    0.05    0.00
   40   26.40    3.80   10.51    0.42    0.92    0.00   95.01    4.86    5.89   14.75    0.00    0.00    0.00    0.01    0.43     0.39    0.00    0.05    0.00
   41    0.00    0.00    3.70    0.42    0.00    0.00   91.85    3.16    6.18    4.13    0.00    0.00    0.00    0.00    0.48     0.00    0.00    0.00    0.00
   42    0.00    0.00    1.32    0.41    0.00    0.00   89.10    2.75    6.17    1.75    0.00    0.00    0.00    0.00    0.52     0.00    0.00    0.00    0.00
   43    3.00    0.00    0.94    0.41    0.00    0.00   87.58    3.81    6.50    1.37    0.00    0.00    0.00    0.00    0.62     0.00    0.00    0.00    0.00
   44    2.00    0.00    0.59    0.40    0.00    0.00   85.47    3.73    5.88    1.01    0.00    0.00    0.00    0.00    0.69     0.00    0.00    0.00    0.00
   45   25.90    3.07    6.85    0.40    0.37    0.00   93.09    4.56    4.65   10.35    0.03    0.00    0.00    0.00    0.73     0.07    0.00    0.01    0.00
   46   17.30    0.95    8.49    0.40    0.61    0.00   95.32    4.09    4.09    9.85    0.00    0.00    0.00    0.00    0.59     0.01    0.00    0.00    0.00
   47    2.30    0.00    3.31    0.39    0.00    0.00   91.72    5.41    6.38    3.72    0.00    0.00    0.00    0.00    0.47     0.00    0.00    0.00    0.00
   48    4.10    0.00    1.98    0.38    0.00    0.00   91.40    3.19    3.33    2.38    0.00    0.00    0.00    0.00    0.42     0.00    0.00    0.00    0.00
   49   13.50    0.23    4.57    0.37    0.26    0.00   94.69    3.75    3.75    5.19    0.00    0.00    0.00    0.00    0.38     0.00    0.00    0.00    0.00
   50    2.00    0.00    1.88    0.37    0.00    0.00   91.82    4.46    4.68    2.27    0.00    0.00    0.00    0.00    0.23     0.00    0.00    0.00    0.00
   51   30.00    5.46   10.30    0.37    1.16    0.00   96.21    4.06    4.06   16.14    0.00    0.00    0.00    0.00    0.28     0.01    0.00    0.00    0.00
   52   51.60   19.32   18.64    0.37    2.61    0.00   98.49    4.08    4.08   38.35    0.01    0.00    0.00    0.00    0.14     0.03    0.00    0.00    0.00
   53    0.30    0.00    6.58    0.37    0.00    0.00   95.68    3.11    3.68    6.97    0.00    0.00    0.00    0.00    0.06     0.00    0.00    0.00    0.00
   54    0.80    0.00    2.36    0.37    0.00    0.00   92.65    3.83    4.65    2.74    0.00    0.00    0.00    0.00    0.05     0.00    0.00    0.00    0.00
   55   30.70    5.94    9.65    0.37    1.08    0.00   97.86    4.85    4.86   15.97    0.00    0.00    0.00    0.00    0.05     0.01    0.00    0.00    0.00
   56   30.50    6.49   14.19    0.37    2.06    0.00   98.22    4.90    5.04   21.07    0.00    0.00    0.00    0.00    0.05     0.01    0.00    0.00    0.00
   57   45.50   15.58   19.18    0.38    3.04    0.00   99.76    3.36    3.36   35.15    0.01    0.00    0.00    0.00    0.05     0.03    0.00    0.00    0.00
   58   35.80    9.69   19.61    0.38    2.85    0.00   98.37    4.75    4.86   29.71    0.00    0.00    0.00    0.00    0.05     0.01    0.00    0.00    0.00
   59    0.30    0.00    6.94    0.39    0.00    0.00   95.61    3.06    4.05    7.35    0.00    0.00    0.00    0.00    0.05     0.00    0.00    0.00    0.00
    2  351.60   73.14  159.51   11.17   14.97    0.00   95.61   99.68  144.09  244.35    0.29    0.00    0.02    0.03    6.73     0.96    0.00    0.12    0.00
   60    5.10    0.00    3.58    0.39    0.00    0.00   94.13    4.92    5.69    3.99    0.00    0.00    0.00    0.00    0.05     0.00    0.00    0.00    0.00
   61    6.60    0.00    2.78    0.40    0.00    0.00   94.20    4.25    4.69    3.20    0.00    0.00    0.00    0.00    0.05     0.00    0.00    0.00    0.00
   62    8.60    0.01    3.06    0.40    0.02    0.00   94.09    5.50    5.88    3.49    0.00    0.00    0.00    0.00    0.06     0.00    0.00    0.00    0.00
   63    3.60    0.00    1.75    0.40    0.00    0.00   92.19    4.48    4.95    2.18    0.00    0.00    0.00    0.00    0.05     0.00    0.00    0.00    0.00
   64    0.00    0.00    0.63    0.40    0.00    0.00   88.52    3.68    5.48    1.05    0.00    0.00    0.00    0.00    0.05     0.00    0.00    0.00    0.00
   65   47.20   14.63   11.51    0.41    1.35    0.00   97.39    4.79    4.80   26.57    0.01    0.00    0.00    0.00    0.05     0.01    0.00    0.00    0.00
   66    1.00    0.00    4.07    0.41    0.00    0.00   95.29    3.10    3.38    4.50    0.00    0.00    0.00    0.00    0.05     0.00    0.00    0.00    0.00
   67    7.60    0.00    3.27    0.41    0.00    0.00   95.21    4.88    5.03    3.71    0.00    0.00    0.00    0.00    0.04     0.00    0.00    0.00    0.00
   68    4.30    0.00    2.02    0.41    0.00    0.00   93.19    5.01    5.40    2.45    0.00    0.00    0.00    0.00    0.05     0.00    0.00    0.00    0.00
   69    2.00    0.00    0.95    0.41    0.00    0.00   90.84    3.99    4.36    1.38    0.00    0.00    0.00    0.00    0.05     0.00    0.00    0.00    0.00
   70    0.00    0.00    0.35    0.41    0.00    0.00   87.42    3.42    4.92    0.77    0.00    0.00    0.00    0.00    0.05     0.00    0.00    0.00    0.00
   71    0.50    0.00    0.13    0.39    0.00    0.00   84.69    3.23    4.54    0.54    0.00    0.00    0.00    0.00    0.05     0.00    0.00    0.00    0.00
   72   52.30   17.06   11.44    0.39    1.20    0.00   96.46    4.55    4.55   28.91    0.01    0.00    0.00    0.00    0.05     0.01    0.00    0.00    0.00
   73   30.00    6.05   14.39    0.39    1.65    0.00   98.36    4.36    4.36   20.84    0.00    0.00    0.00    0.00    0.04     0.01    0.00    0.00    0.00
   74    3.00    0.00    5.59    0.39    0.00    0.00   96.41    4.16    4.40    6.00    0.00    0.00    0.00    0.00    0.04     0.00    0.00    0.00    0.00
   75    1.00    0.00    2.00    0.39    0.00    0.00   91.84    5.57    7.34    2.41    0.00    0.00    0.00    0.00    0.04     0.00    0.00    0.00    0.00
   76    6.40    0.00    2.16    0.38    0.00    0.00   90.19    5.87    7.66    2.56    0.00    0.00    0.00    0.00    0.04     0.00    0.00    0.00    0.00
   77    0.30    0.00    0.77    0.37    0.00    0.00   86.65    3.84    6.13    1.16    0.00    0.00    0.00    0.00    0.04     0.00    0.00    0.00    0.00
   78    0.30    0.00    0.28    0.37    0.00    0.00   83.57    3.38    5.24    0.68    0.00    0.00    0.00    0.00    0.04     0.00    0.00    0.00    0.00
   79    4.80    0.00    1.09    0.37    0.00    0.00   82.40    4.45    5.39    1.48    0.00    0.00    0.00    0.00    0.04     0.00    0.00    0.00    0.00
   80    0.00    0.00    0.39    0.36    0.00    0.00   78.79    3.61    5.72    0.77    0.00    0.00    0.00    0.00    0.04     0.00    0.00    0.00    0.00
   81    0.00    0.00    0.14    0.35    0.00    0.00   75.34    3.45    5.73    0.51    0.00    0.00    0.00    0.00    0.04     0.00    0.00    0.00    0.00
   82   10.20    0.01    2.46    0.35    0.00    0.00   77.00    4.84    6.16    2.83    0.00    0.00    0.00    0.00    0.04     0.00    0.00    0.00    0.00
   83   19.10    0.65    5.56    0.34    0.00    0.00   83.08    5.13    5.80    6.57    0.00    0.00    0.00    0.00    0.04     0.00    0.00    0.00    0.00
   84    0.00    0.00    1.94    0.34    0.00    0.00   79.47    3.62    5.35    2.30    0.00    0.00    0.00    0.00    0.04     0.00    0.00    0.00    0.00
   85    0.00    0.00    0.68    0.33    0.00    0.00   75.42    4.04    6.27    1.03    0.00    0.00    0.00    0.00    0.04     0.00    0.00    0.00    0.00
   86    0.00    0.00    0.24    0.32    0.00    0.00   71.37    4.05    6.91    0.59    0.00    0.00    0.00    0.00    0.04     0.00    0.00    0.00    0.00
   87    8.60    0.00    2.07    0.32    0.00    0.00   72.45    4.48    5.23    2.41    0.00    0.00    0.00    0.00    0.04     0.00    0.00    0.00    0.00
   88    0.30    0.00    0.72    0.32    0.00    0.00   69.90    2.85    4.30    1.06    0.00    0.00    0.00    0.00    0.04     0.00    0.00    0.00    0.00
   89    0.00    0.00    0.25    0.31    0.00    0.00   66.24    3.65    5.67    0.59    0.00    0.00    0.00    0.00    0.03     0.00    0.00    0.00    0.00
   90    0.00    0.00    0.09    0.31    0.00    0.00   62.69    3.56    5.83    0.42    0.00    0.00    0.00    0.00    0.03     0.00    0.00    0.00    0.00
    3  222.80   38.41   86.37   11.54    4.22    0.00   62.69  130.73  167.16  136.94    0.01    0.00    0.00    0.00    1.34     0.03    0.00    0.00    0.00
   91   43.70    7.27   11.03    0.31    0.03    0.00   79.67    2.46    2.46   18.63    0.00    0.00    0.00    0.00    0.03     0.00    0.00    0.00    0.00
[...]
  352   20.10    1.82    7.45    0.19    0.70    0.00   98.36    3.58    4.14    9.47    0.04    0.00    0.01    0.01    0.00     0.07    0.00    0.01    0.00
  353   58.20   24.68   18.98    0.20    3.40    0.00  100.02    3.05    3.27   43.88    0.74    0.00    0.04    0.07    0.00     1.52    0.00    0.19    0.00
  354    0.80    0.00    6.69    0.20    0.00    0.00   97.61    3.21    4.67    6.91    0.00    0.00    0.02    0.00    0.00     0.00    0.00    0.00    0.00
  355   87.60   48.24   21.39    0.21    4.34    0.00  100.68    2.43    2.46   69.84    3.03    0.00    0.05    0.09    0.00     4.92    0.00    0.60    0.00
  356   55.90   23.55   24.27    0.22    4.00    0.00  100.21    2.90    3.02   48.06    0.00    0.00    0.06    0.08    0.00     1.66    0.00    0.20    0.00
  357    0.00    0.00    8.60    0.23    0.00    0.00   97.21    3.00    5.45    8.85    0.00    0.00    0.02    0.00    0.00     0.00    0.00    0.00    0.00
  358    0.00    0.00    3.10    0.24    0.00    0.00   94.35    2.86    7.05    3.36    0.00    0.00    0.01    0.00    0.00     0.00    0.00    0.00    0.00
  359    0.00    0.00    1.15    0.25    0.00    0.00   92.13    2.21    6.84    1.41    0.00    0.00    0.00    0.00    0.00     0.00    0.00    0.00    0.00
  360   23.90    2.94    7.03    0.26    0.49    0.00   99.00    3.39    3.83   10.25    0.12    0.00    0.00    0.01    0.00     0.18    0.00    0.02    0.00
  361    4.60    0.00    3.49    0.27    0.04    0.00   99.20    2.81    2.89    3.78    0.00    0.00    0.00    0.00    0.00     0.00    0.00    0.00    0.00
  362   14.70    0.62    7.32    0.27    0.84    0.00   99.61    3.43    3.88    8.24    0.02    0.00    0.01    0.02    0.00     0.03    0.00    0.00    0.00
  363    8.40    0.01    5.53    0.28    0.35    0.00   99.45    3.64    4.22    5.83    0.00    0.00    0.01    0.01    0.00     0.00    0.00    0.00    0.00
  364    0.30    0.00    1.96    0.29    0.00    0.00   96.57    3.18    5.71    2.26    0.00    0.00    0.00    0.00    0.00     0.00    0.00    0.00    0.00
  365    7.40    0.00    2.39    0.29    0.00    0.00   98.35    3.02    3.49    2.70    0.00    0.00    0.00    0.00    0.00     0.00    0.00    0.00    0.00
   12  450.40  135.18  192.10    6.23   19.94    0.00   98.35   97.51  147.35  333.93    5.14    0.01    0.33    0.41    0.00    10.85    0.01    1.33    0.00

 2014 3844.30 1082.42 1582.43   92.91  139.11    0.00   98.35 1044.68 1709.14 2764.14   15.12    0.05    1.98    1.69    8.59    45.30    0.06    5.55    0.00
  366   39.90   11.95   14.08    0.30    2.66    0.00  101.32    1.80    1.82   26.34    0.31    0.00    0.03    0.05    0.00     0.54    0.00    0.07    0.00
    1   39.90   11.95   14.08    0.30    2.66    0.00  101.32    1.80    1.82   26.34    0.31    0.00    0.03    0.05    0.00     0.54    0.00    0.07    0.00

 2014   39.90   11.95   14.08    0.30    2.66    0.00  101.32    1.80    1.82   26.34    0.31    0.00    0.03    0.05    0.00     0.54    0.00    0.07    0.00
1
    SWAT Dec 23 2016    VER 2016/Rev 664                                            

    General Input/Output section (file.cio):                                        
    2/12/2020 14:36:37 QSWAT Workflow v1.5.2                                        
                                                                                    
    FINAL VALUES

1
    SWAT Dec 23 2016    VER 2016/Rev 664                                            

    General Input/Output section (file.cio):                                        
    2/12/2020 14:36:37 QSWAT Workflow v1.5.2                                        
                                                                                    
                                            Average Plant Values (kg/ha)

  HRU       1 SUB   1 FRSE  Yld =  5344.3 BIOM =   7634.7
  HRU       2 SUB   2 FRSE  Yld =  5302.6 BIOM =   7575.2
  HRU       3 SUB   2 FRSD  Yld =  3279.9 BIOM =   9603.2
  HRU       4 SUB   3 FRSE  Yld =  5209.7 BIOM =   7442.4
  HRU       5 SUB   4 FRSE  Yld =  5340.1 BIOM =   7628.7
  HRU       6 SUB   4 FRSD  Yld =  3071.3 BIOM =   8889.5
  HRU       7 SUB   5 FRSE  Yld =  5108.2 BIOM =   7297.5
  HRU       8 SUB   5 FRSE  Yld =  5378.6 BIOM =   7683.7
  HRU       9 SUB   5 FRSD  Yld =  4067.6 BIOM =  11233.9
  HRU      10 SUB   5 FRSD  Yld =  3191.1 BIOM =   9321.9
  HRU      11 SUB   5 FRSD  Yld =  3778.2 BIOM =  10378.2
  HRU      12 SUB   5 FRSD  Yld =  3659.4 BIOM =  10043.2
  HRU      13 SUB   6 FRSE  Yld =  5042.2 BIOM =   7203.2
  HRU      14 SUB   6 FRSE  Yld =  4742.8 BIOM =   6775.5
  HRU      15 SUB   6 FRSE  Yld =  4852.3 BIOM =   6931.9
  HRU      16 SUB   6 FRSE  Yld =  5096.5 BIOM =   7280.7
  HRU      17 SUB   7 FRSE  Yld =  5058.1 BIOM =   7225.9
  HRU      18 SUB   7 FRSD  Yld =  3145.3 BIOM =   9209.4
  HRU      19 SUB   8 FRSE  Yld =  2606.3 BIOM =   3723.2
  HRU      20 SUB   8 FRSE  Yld =  5188.0 BIOM =   7411.5
  HRU      21 SUB   8 BARR  Yld =     0.0 BIOM =      0.9
  HRU      22 SUB   8 FRSD  Yld =  3232.3 BIOM =   9424.5
  HRU      23 SUB   9 FRSE  Yld =  4824.3 BIOM =   6891.8
  HRU      24 SUB   9 FRSE  Yld =  5061.9 BIOM =   7231.4
  HRU      25 SUB   9 FRSD  Yld =  3289.4 BIOM =   9625.5
  HRU      26 SUB  10 FRSE  Yld =  4795.5 BIOM =   6850.7
  HRU      27 SUB  10 FRSE  Yld =  5363.8 BIOM =   7662.6
  HRU      28 SUB  10 FRSE  Yld =  4869.8 BIOM =   6956.9
  HRU      29 SUB  10 FRSE  Yld =  4869.6 BIOM =   6956.5
  HRU      30 SUB  11 SWCH  Yld = 25363.0 BIOM =  42585.0
  HRU      31 SUB  11 FRSE  Yld =  4241.3 BIOM =   6059.0
  HRU      32 SUB  11 FRSE  Yld =  4841.7 BIOM =   6916.7
  HRU      33 SUB  11 FRSE  Yld =  4436.6 BIOM =   6338.0
  HRU      34 SUB  11 FRSE  Yld =  4787.8 BIOM =   6839.7
  HRU      35 SUB  11 FRSE  Yld =  4834.9 BIOM =   6907.0
  HRU      36 SUB  11 FRSD  Yld =  3653.3 BIOM =  10091.1
  HRU      37 SUB  11 FRSD  Yld =  3052.9 BIOM =   8789.2
  HRU      38 SUB  11 FRSD  Yld =  3620.3 BIOM =   9937.1
  HRU      39 SUB  11 FRSD  Yld =  3654.9 BIOM =  10031.5
  HRU      40 SUB  11 FRSD  Yld =  3161.4 BIOM =   9245.4

    HRU STATISTICS

                AVE ANNUAL VALUES

   HRU  SUB  SOIL       AREAkm2    CN     AWCmm   USLE_LS  IRRmm  AUTONkh AUTOPkh  MIXEF PRECmm SURQGENmm   GWQmm    ETmm   SEDth  NO3kgh  ORGNkgh BIOMth   YLDth  SURQmm
      1   1   FAGASA     .726E-01   70.00   97.20    8.22    0.00    0.00    0.00    0.20 3485.48  888.93 1604.39  963.21   20.49    2.09   47.26   11.89    8.33  888.93
      2   2   FAGASA     .842E-01   70.00   97.20    7.62    0.00    0.00    0.00    0.20 3485.48  898.36 1584.98  967.18   19.59    2.09   46.97   11.80    8.26  898.36
      3   2   FAGASA     .513E-03   77.00   97.20    9.84    0.00    0.00    0.00    0.20 3485.48 1075.27 1438.39  963.12    3.44    1.81   23.82   14.79   10.36 1075.27
      4   3   FAGASA     .425E-01   70.00   97.20    6.62    0.00    0.00    0.00    0.20 3485.48  912.67 1558.24  973.94   16.13    2.11   45.41   11.60    8.12  912.67
      5   4   FAGASA     .642E-01   70.00   97.20    8.17    0.00    0.00    0.00    0.20 3485.48  889.77 1602.73  963.55   20.09    2.09   47.08   11.89    8.32  889.77
      6   4   FAGASA     .390E-02   77.00   97.20    3.75    0.00    0.00    0.00    0.20 3485.48 1244.31 1182.04 1017.13    2.17    1.83   18.82   13.87    9.71 1244.31
      7   5   AUA        .482E-02   55.00  165.80    3.47    0.00    0.00    0.00    0.20 3485.48  505.83 1811.45 1066.67    2.11    1.34   18.06   11.32    7.92  505.83
      8   5   FAGASA     .391E-01   70.00   97.20    8.86    0.00    0.00    0.00    0.20 3485.48  877.49 1625.26  958.91   20.18    2.13   47.06   11.97    8.38  877.49
      9   5   AUA        .410E-03   66.00  165.80    4.84    0.00    0.00    0.00    0.20 3485.48  834.93 1538.65 1058.76    0.52    1.91    5.39   18.02   12.61  834.93
     10   5   FAGASA     .103E-03   77.00   97.20    5.13    0.00    0.00    0.00    0.20 3485.48 1216.87 1227.94 1004.41    1.70    1.84   15.74   14.46   10.12 1216.87
     11   5   AUA        .103E-03   77.00  165.80    1.93    0.00    0.00    0.00    0.20 3485.48 1352.49  963.48 1087.30    0.28    0.63    3.55   16.64   11.65 1352.49
     12   5   AUA        .103E-03   77.00  165.80    2.21    0.00    0.00    0.00    0.20 3485.48 1355.92  943.98 1091.22    0.34    0.27    4.13   16.07   11.25 1355.90
     13   6   AUA        .852E-02   55.00  165.80    3.06    0.00    0.00    0.00    0.20 3485.48  506.47 1806.51 1067.98    2.02    1.27   17.61   11.18    7.83  506.47
     14   6   FAGASA     .765E-01   70.00   97.20    4.41    0.00    0.00    0.00    0.20 3485.48  938.29 1508.09  992.23   12.91    2.13   44.52   10.62    7.43  938.29
     15   6   AUA        .103E-03   70.00  165.80    1.85    0.00    0.00    0.00    0.20 3485.48 1028.52 1251.07 1081.15    1.74    0.20   17.55   10.79    7.56 1028.50
     16   6   AUA        .103E-03   70.00  165.80    1.69    0.00    0.00    0.00    0.20 3485.48 1025.81 1270.52 1076.87    1.53    0.57   15.87   11.32    7.92 1025.81
     17   7   FAGASA     .425E-01   70.00   97.20    5.65    0.00    0.00    0.00    0.20 3485.48  924.64 1536.28  981.55   14.34    2.13   44.72   11.28    7.90  924.64
     18   7   FAGASA     .144E-02   77.00   97.20    4.55    0.00    0.00    0.00    0.20 3485.48 1228.45 1206.91 1009.79    2.23    1.84   19.05   14.24    9.97 1228.45
     19   8   FAGASA     .103E-03   70.00   97.20    0.44    0.00    0.00    0.00    0.20 3485.48  998.63 1312.11 1042.58    0.94    0.07   12.29    5.86    4.10  998.39
     20   8   FAGASA     .339E-01   70.00   97.20    6.45    0.00    0.00    0.00    0.20 3485.48  915.00 1554.49  975.28   15.37    2.12   45.04   11.56    8.09  915.00
     21   8   FAGASA     .513E-03   91.00   97.20    3.17    0.00    0.00    0.00    0.20 3485.48 2160.43  451.70  869.04  104.32    1.70   55.74    0.00    0.00 2160.43
     22   8   FAGASA     .205E-03   77.00   97.20    5.82    0.00    0.00    0.00    0.20 3485.48 1201.79 1253.21  998.22    2.09    1.83   18.02   14.64   10.25 1201.79
     23   9   AUA        .107E-01   55.00  165.80    2.85    0.00    0.00    0.00    0.20 3485.48  508.65 1785.53 1072.33    2.03    1.02   17.83   10.71    7.50  508.65
     24   9   FAGASA     .108E-01   70.00   97.20    5.65    0.00    0.00    0.00    0.20 3485.48  924.65 1536.23  981.59   12.16    2.14   43.27   11.29    7.90  924.65
     25   9   FAGASA     .205E-03   77.00   97.20    8.51    0.00    0.00    0.00    0.20 3485.48 1115.49 1385.69  971.84    2.75    1.80   20.92   14.86   10.40 1115.49
     26  10   AUA        .698E-02   55.00  165.80    2.63    0.00    0.00    0.00    0.20 3485.48  508.96 1783.29 1072.94    1.80    0.99   16.43   10.65    7.46  508.96
     27  10   FAGASA     .246E-02   70.00   97.20    8.38    0.00    0.00    0.00    0.20 3485.48  886.33 1609.40  962.21   13.85    2.11   43.60   11.93    8.35  886.33
     28  10   AUA        .821E-03   70.00  165.80    2.80    0.00    0.00    0.00    0.20 3485.48 1028.20 1253.38 1080.66    3.45    0.25   27.00   10.83    7.58 1028.19
     29  10   AUA        .513E-03   70.00  165.80    2.73    0.00    0.00    0.00    0.20 3485.48 1028.22 1253.22 1080.70    3.17    0.25   25.78   10.83    7.58 1028.21
     30  11   AUA        .923E-03   59.00  165.80    3.88    0.00  131.80    0.00    0.20 3485.48  587.13 1703.27 1106.87    0.12    8.44    1.15   59.49   38.64  587.13
     31  11   AUA        .205E-03   55.00  165.80    0.30    0.00    0.00    0.00    0.20 3485.48  514.98 1727.20 1084.41    0.11    0.04    1.55    9.43    6.60  514.87
     32  11   AUA        .728E-02   55.00  165.80    2.97    0.00    0.00    0.00    0.20 3485.48  508.49 1786.74 1071.99    2.02    1.05   17.74   10.75    7.53  508.49
     33  11   FAGASA     .118E-01   70.00   97.20    3.56    0.00    0.00    0.00    0.20 3485.48  946.38 1489.69 1000.22    8.97    2.11   41.97    9.96    6.97  946.38
     34  11   AUA        .103E-03   70.00  165.80    0.35    0.00    0.00    0.00    0.20 3485.48 1030.29 1243.30 1082.74    0.25    0.06    3.51   10.66    7.46 1030.00
     35  11   AUA        .718E-03   70.00  165.80    1.39    0.00    0.00    0.00    0.20 3485.48 1028.81 1249.53 1081.51    1.68    0.17   17.25   10.76    7.53 1028.79
     36  11   AUA        .257E-02   66.00  165.80    3.15    0.00    0.00    0.00    0.20 3485.48  859.60 1461.64 1081.14    0.52    1.21    5.62   16.07   11.25  859.60
     37  11   FAGASA     .154E-02   77.00   97.20    3.56    0.00    0.00    0.00    0.20 3485.48 1247.80 1176.01 1018.93    1.86    1.83   17.04   13.78    9.64 1247.80
     38  11   AUA        .205E-03   77.00  165.80    0.27    0.00    0.00    0.00    0.20 3485.48 1357.94  934.02 1092.76    0.03    0.11    0.43   15.88   11.12 1357.12
     39  11   AUA        .123E-02   77.00  165.80    2.11    0.00    0.00    0.00    0.20 3485.48 1355.99  943.69 1091.27    0.52    0.27    5.95   16.05   11.23 1355.97
     40  11   FAGASA     .103E-03   77.00   97.20    4.66    0.00    0.00    0.00    0.20 3485.48 1226.24 1210.20 1008.71    1.58    1.85   14.98   14.31   10.02 1226.24



                AVE MONTHLY BASIN VALUES
                   SNOW                      WATER               SED
  MON     RAIN     FALL   SURF Q    LAT Q    YIELD       ET    YIELD      PET
          (MM)     (MM)     (MM)     (MM)     (MM)     (MM)   (T/HA)     (MM)
    1   573.80     0.00   167.87   271.13   451.66    91.98     8.01   128.85
    2   248.15     0.00    57.03   121.62   192.98    84.00     1.12   125.41
    3   158.30     0.00    19.23    60.74    92.01   107.80     0.01   141.23
    4   352.75     0.00    52.57   154.75   213.21    89.45     0.02   122.55
    5   177.95     0.00    21.61    87.70   115.50    77.80     0.01   137.60
    6   251.80     0.00    67.56   101.96   175.64    72.67     0.09   113.51
    7   488.95     0.00   230.78   151.06   388.08    70.35     0.57   107.41
    8   292.00     0.00    85.97   133.62   228.65    73.29     0.40   123.74
    9   138.15     0.00    14.10    56.70    78.51    69.93     0.09   144.06
   10   162.50     0.00    31.99    60.45    97.34    64.40     0.40   170.12
   11   256.55     0.00    40.99   116.91   161.82    82.73     0.67   142.37
   12   380.10     0.00    94.13   167.20   267.41    97.58     4.26   146.62

     AVE ANNUAL BASIN STRESS DAYS
               WATER STRESS DAYS =     3.09
               TEMPERATURE STRESS DAYS =     0.10
               NITROGEN STRESS DAYS =     6.83
               PHOSPHORUS STRESS DAYS =     0.01
               AERATION STRESS DAYS =     0.00
1
    SWAT Dec 23 2016    VER 2016/Rev 664                                            

    General Input/Output section (file.cio):                                        
    2/12/2020 14:36:37 QSWAT Workflow v1.5.2                                        
                                                                                    
         AVE ANNUAL BASIN VALUES

              PRECIP =   3485.5 MM
              SNOW FALL =    0.00 MM
              SNOW MELT =     0.00 MM
              SUBLIMATION =     0.00 MM
              SURFACE RUNOFF Q =   885.32 MM
              LATERAL SOIL Q = 1486.19 MM
              TILE Q =     0.00 MM
              GROUNDWATER (SHAL AQ) Q =    88.97 MM
              GROUNDWATER (DEEP AQ) Q =     6.26 MM
              REVAP (SHAL AQ => SOIL/PLANTS) =   32.07 MM
              DEEP AQ RECHARGE =     6.06 MM
              TOTAL AQ RECHARGE =  121.27 MM
              TOTAL WATER YLD =  2466.73 MM
              PERCOLATION OUT OF SOIL =  124.02 MM
              ET =    982.1 MM
              PET =   1603.4MM
              TRANSMISSION LOSSES =     0.00 MM
              SEPTIC INFLOW =       0.00 MM
              TOTAL SEDIMENT LOADING =     15.77 T/HA
              TILE FROM IMPOUNDED WATER =     0.000 (MM)
              EVAPORATION FROM IMPOUNDED WATER =     0.000 (MM)
              SEEPAGE INTO SOIL FROM IMPOUNDED WATER =    0.000 (MM)
              OVERFLOW FROM IMPOUNDED WATER =    0.000 (MM)
1
    SWAT Dec 23 2016    VER 2016/Rev 664                                            

    General Input/Output section (file.cio):                                        
    2/12/2020 14:36:37 QSWAT Workflow v1.5.2                                        
                                                                                    
              AVE ANNUAL BASIN VALUES


              NUTRIENTS
                   ORGANIC N =    42.965 (KG/HA)
                   ORGANIC P =     5.261 (KG/HA)
                   NO3 YIELD (SQ) =     0.042 (KG/HA)
                   NO3 YIELD (LAT) =    1.983 (KG/HA)
                   NO3 YIELD (TILE) =    0.000 (KG/HA)
                   SOLP YIELD (TILE) =    0.000(KG/HA)
                   SOLP YIELD (SURF INLET RISER) =    0.000 (KG/HA)
                   SOL P YIELD =    0.050 (KG/HA)
                   NO3 LEACHED =     1.828 (KG/HA)
                   P LEACHED =     0.053 (KG/HA)
                   N UPTAKE =     7.920 (KG/HA)
                   P UPTAKE =    1.793 (KG/HA)
                   NO3 YIELD (GWQ) =     0.022 (KG/HA)
                   ACTIVE TO SOLUTION P FLOW =         0.497 (KG/HA)
                   ACTIVE TO STABLE P FLOW =         0.860 (KG/HA)
                   N FERTILIZER APPLIED =     0.227 (KG/HA)
                   P FERTILIZER APPLIED =     0.000 (KG/HA)
                   N FIXATION =     0.000 (KG/HA)
                   DENITRIFICATION =     0.000 (KG/HA)
                   HUMUS MIN ON ACTIVE ORG N =    14.191 (KG/HA)
                   ACTIVE TO STABLE ORG N =    -7.460 (KG/HA)
                   HUMUS MIN ON ACTIVE ORG P =    2.429 (KG/HA)
                   MIN FROM FRESH ORG N =    1.383 (KG/HA)
                   MIN FROM FRESH ORG P =    0.317 (KG/HA)
                   NO3 IN RAINFALL =     0.000 (KG/HA)
                   INITIAL NO3 IN SOIL =      37.103 (KG/HA)
                   FINAL NO3 IN SOIL =         5.592 (KG/HA)
                   INITIAL ORG N IN SOIL =   11541.572 (KG/HA)
                   FINAL ORG N IN SOIL =     11045.975 (KG/HA)
                   INITIAL MIN P IN SOIL =    1820.293 (KG/HA)
                   FINAL MIN P IN SOIL =      1781.325 (KG/HA)
                   INITIAL ORG P IN SOIL =    1413.843 (KG/HA)
                   FINAL ORG P IN SOIL =    1349.623 (KG/HA)
                   NO3 IN FERT =     0.227 (KG/HA)
                   AMMONIA IN FERT =     0.000 (KG/HA)
                   ORG N IN FERT =     0.000 (KG/HA)
                   MINERAL P IN FERT =     0.000 (KG/HA)
                   ORG P IN FERT =     0.000 (KG/HA)
                   N REMOVED IN YIELD =     6.313 (KG/HA)
                   P REMOVED IN YIELD =     1.432 (KG/HA)
                   AMMONIA VOLATILIZATION =     0.000 (KG/HA)
                   AMMONIA NITRIFICATION =      0.000 (KG/HA)
                   NO3 EVAP-LAYER 2 TO 1 =    3.193

                   DIE-GRO P Q =           0.0 (No/M2)
                   DIE-GRO LP Q =           0.0 (No/M2)
                   DIE-GRO P SED =          0.0 (No/M2)
                   DIE-GRO LP SED =          0.0 (No/M2)
                   BACT P RUNOFF =          0.0 (No/M2)
                   BACT LP RUNOFF =          0.0 (No/M2)
                   BACT P SEDIMENT =          0.0 (No/M2)
                   BACT LP SEDIMENT =          0.0 (No/M2)
                   BACT P INCORP =          0.0 (No/M2)
                   BACT LP INCORP =          0.0 (No/M2)

                   NITRATE SEPTIC =         0.00 (kg/ha)
                   AMMONIA SEPTIC =         0.00 (kg/ha)
                   ORG N SEPTIC =         0.00 (kg/ha)
                   FRESH ORGN SEPTIC =         0.00 (kg/ha)
                   ORG P SEPTIC =         0.00 (kg/ha)
                   FRESH ORGP SEPTIC =         0.00 (kg/ha)
                   SOL P SEPTIC =         0.00 (kg/ha)
                   BOD SEPTIC =         0.00 (kg/ha)
