1
    SWAT Dec 23 2016    VER 2016/Rev 664                                                                 0/ 0/   0      0: 0: 0

    General Input/Output section (file.cio):                                        
    2/7/2020 10:54:15 QSWAT Workflow v1.5.2                                         
                                                                                    


       SUB      GIS  MON   AREAkm2  PRECIPmm SNOMELTmm     PETmm      ETmm      SWmm    PERCmm    SURQmm    GW_Qmm    WYLDmm  SYLDt/ha ORGNkg/ha ORGPkg/haNSURQkg/ha SOLPkg/ha SEDPkg/ha LAT Q(mm)LATNO3kg/hGWNO3kg/haCHOLAmic/LCBODU mg/L DOXQ mg/L TNO3kg/ha   QTILEmm TVAPkg/ha
BIGSUB   1        0    1.24419E+00   288.000     0.000   152.500   108.598   109.659     2.207    13.484     3.607   169.266     1.663     2.801     0.343     0.002     0.001     0.278   152.004     0.207     0.001 .00000E+00 0.000E+00 0.000E+00 0.000E+00 0.000E+00 0.000E+00
BIGSUB   2        0    1.13482E+00   288.000     0.000   152.492   108.050   103.968     1.518    15.333     2.349   169.538     1.646     2.915     0.356     0.003     0.001     0.288   151.734     0.201     0.001 .00000E+00 0.000E+00 0.000E+00 0.000E+00 0.000E+00 0.000E+00
BIGSUB   3        0    1.12733E+00   288.000     0.000   152.465   108.649   109.313     2.426    13.000     3.991   169.448     1.240     2.442     0.299     0.002     0.001     0.241   152.276     0.207     0.001 .00000E+00 0.000E+00 0.000E+00 0.000E+00 0.000E+00 0.000E+00
BIGSUB   4        0    1.18951E+00   288.000     0.000   152.395   106.448    92.604     0.490    25.311     0.832   171.572     2.397     4.321     0.528     0.006     0.002     0.426   145.381     0.197     0.000 .00000E+00 0.000E+00 0.000E+00 0.000E+00 0.000E+00 0.000E+00
BIGSUB   5        0    1.25558E+00   288.000     0.000   152.464   108.548    98.306     0.534    18.637     0.537   165.879     1.295     2.983     0.365     0.003     0.001     0.293   146.589     0.195     0.000 .00000E+00 0.000E+00 0.000E+00 0.000E+00 0.000E+00 0.000E+00
BIGSUB   6        0    1.15319E+00   288.000     0.000   152.503   109.459   117.091     5.896    11.549     8.495   169.691     1.076     2.137     0.261     0.002     0.001     0.210   149.298     0.214     0.002 .00000E+00 0.000E+00 0.000E+00 0.000E+00 0.000E+00 0.000E+00
BIGSUB   7        0    1.13143E+00   288.000     0.000   152.507   108.343   111.738     4.877    18.640     5.065   168.568     1.641     3.030     0.375     0.005     0.002     0.307   144.623     0.214     0.003 .00000E+00 0.000E+00 0.000E+00 0.000E+00 0.000E+00 0.000E+00
BIGSUB   8        0    1.90085E-01   288.000     0.000   152.558   111.689   150.769     9.621    13.300    13.929   167.459     0.615     1.386     0.171     0.005     0.001     0.138   139.658     0.233     0.004 .00000E+00 0.000E+00 0.000E+00 0.000E+00 0.000E+00 0.000E+00
BIGSUB   9        0    1.37142E-01   288.000     0.000   152.571   113.144   125.014    14.500    20.358    18.156   167.543     0.522     1.410     0.172     0.002     0.003     0.137   128.319     0.220     0.005 .00000E+00 0.000E+00 0.000E+00 0.000E+00 0.000E+00 0.000E+00
BIGSUB   1        0    2.24419E+00   193.700     0.000   154.276   112.380    88.587     0.659    17.009     2.031   106.755     0.995     1.575     0.193     0.085     0.000     0.157    87.563     0.165     0.000 .00000E+00 0.000E+00 0.000E+00 0.000E+00 0.000E+00 0.000E+00
BIGSUB   2        0    2.13482E+00   193.700     0.000   154.268   111.533    82.428     0.497    18.570     1.105   107.265     0.946     1.561     0.191     0.001     0.001     0.154    87.481     0.038     0.000 .00000E+00 0.000E+00 0.000E+00 0.000E+00 0.000E+00 0.000E+00
BIGSUB   3        0    2.12733E+00   193.700     0.000   154.243   112.622    88.252     0.683    16.631     2.322   106.785     0.721     1.363     0.167     0.000     0.001     0.134    87.668     0.033     0.000 .00000E+00 0.000E+00 0.000E+00 0.000E+00 0.000E+00 0.000E+00
BIGSUB   4        0    2.18951E+00   193.700     0.000   154.176   106.438    72.231     0.156    26.544     0.353   110.648     1.390     2.145     0.262     0.002     0.001     0.212    83.710     0.032     0.000 .00000E+00 0.000E+00 0.000E+00 0.000E+00 0.000E+00 0.000E+00
BIGSUB   5        0    2.25558E+00   193.700     0.000   154.241   111.582    77.436     0.294    22.354     0.324   105.881     0.768     1.576     0.193     0.002     0.001     0.155    83.105     0.034     0.000 .00000E+00 0.000E+00 0.000E+00 0.000E+00 0.000E+00 0.000E+00
BIGSUB   6        0    2.15319E+00   193.700     0.000   154.279   113.423    97.494     1.684    15.358     6.504   107.809     0.633     1.243     0.152     0.002     0.001     0.122    85.627     0.036     0.001 .00000E+00 0.000E+00 0.000E+00 0.000E+00 0.000E+00 0.000E+00
BIGSUB   7        0    2.13143E+00   193.700     0.000   154.283   109.885    91.680     1.926    21.174     3.456   108.448     1.127     1.874     0.234     0.451     0.001     0.192    83.595     0.949     0.002 .00000E+00 0.000E+00 0.000E+00 0.000E+00 0.000E+00 0.000E+00
BIGSUB   8        0    2.90085E-01   193.700     0.000   154.332   114.764   133.825     3.152    15.289     9.002   104.932     0.588     1.169     0.144     0.301     0.001     0.116    80.113     0.357     0.002 .00000E+00 0.000E+00 0.000E+00 0.000E+00 0.000E+00 0.000E+00
BIGSUB   9        0    2.37142E-01   193.700     0.000   154.344   115.271   108.616     4.234    20.286    14.115   107.828     0.310     0.826     0.101     0.029     0.002     0.080    72.764     0.120     0.004 .00000E+00 0.000E+00 0.000E+00 0.000E+00 0.000E+00 0.000E+00
BIGSUB   1        0    3.24419E+00   253.900     0.000   149.630   116.314    86.816     0.058    24.242     0.269   126.639     0.065     0.105     0.013     0.000     0.001     0.011   101.979     0.008     0.000 .00000E+00 0.000E+00 0.000E+00 0.000E+00 0.000E+00 0.000E+00
BIGSUB   2        0    3.13482E+00   253.900     0.000   149.625   115.800    79.184     0.134    25.214     0.291   128.591     0.016     0.038     0.005     0.000     0.001     0.004   102.980     0.005     0.000 .00000E+00 0.000E+00 0.000E+00 0.000E+00 0.000E+00 0.000E+00
BIGSUB   3        0    3.12733E+00   253.900     0.000   149.608   116.297    86.812     0.000    23.769     0.279   126.334     0.012     0.032     0.004     0.000     0.001     0.003   102.127     0.004     0.000 .00000E+00 0.000E+00 0.000E+00 0.000E+00 0.000E+00 0.000E+00
BIGSUB   4        0    3.18951E+00   253.900     0.000   149.566   114.927    65.431     0.012    33.478     0.052   133.889     0.079     0.090     0.011     0.000     0.001     0.009   100.319     0.006     0.000 .00000E+00 0.000E+00 0.000E+00 0.000E+00 0.000E+00 0.000E+00
BIGSUB   5        0    3.25558E+00   253.900     0.000   149.608   115.690    75.271     0.164    30.824     0.228   128.746     0.074     0.059     0.007     0.000     0.001     0.006    97.602     0.006     0.000 .00000E+00 0.000E+00 0.000E+00 0.000E+00 0.000E+00 0.000E+00
BIGSUB   6        0    3.15319E+00   253.900     0.000   149.632   117.248    99.047     0.308    23.918     1.455   123.675     0.011     0.033     0.004     0.000     0.001     0.003    97.986     0.005     0.000 .00000E+00 0.000E+00 0.000E+00 0.000E+00 0.000E+00 0.000E+00
BIGSUB   7        0    3.13143E+00   253.900     0.000   149.634   116.672    89.053     0.724    30.278     2.411   129.583     0.314     0.548     0.071     0.000     0.001     0.059    96.667     0.026     0.001 .00000E+00 0.000E+00 0.000E+00 0.000E+00 0.000E+00 0.000E+00
BIGSUB   8        0    3.90085E-01   253.900     0.000   149.665   118.240   141.129     1.026    29.488     2.505   118.537     0.511     0.663     0.082     0.003     0.002     0.067    86.022     0.013     0.001 .00000E+00 0.000E+00 0.000E+00 0.000E+00 0.000E+00 0.000E+00
BIGSUB   9        0    3.37142E-01   253.900     0.000   149.673   118.364   114.829     2.689    35.256     6.413   122.643     0.006     0.022     0.003     0.000     0.004     0.002    80.311     0.012     0.001 .00000E+00 0.000E+00 0.000E+00 0.000E+00 0.000E+00 0.000E+00
BIGSUB   1        0    4.24419E+00   235.800     0.000   120.059    67.390    86.969     3.716    33.982     1.136   179.043     0.057     0.088     0.011     0.000     0.001     0.009   143.796     0.037     0.000 .00000E+00 0.000E+00 0.000E+00 0.000E+00 0.000E+00 0.000E+00
BIGSUB   2        0    4.13482E+00   235.800     0.000   120.044    68.005    79.445     2.309    35.872     0.713   179.207     0.015     0.035     0.004     0.000     0.001     0.003   142.531     0.031     0.000 .00000E+00 0.000E+00 0.000E+00 0.000E+00 0.000E+00 0.000E+00
BIGSUB   3        0    4.12733E+00   235.800     0.000   119.995    66.972    87.037     4.176    33.498     1.273   179.145     0.011     0.029     0.004     0.000     0.001     0.003   144.235     0.038     0.000 .00000E+00 0.000E+00 0.000E+00 0.000E+00 0.000E+00 0.000E+00
BIGSUB   4        0    4.18951E+00   235.800     0.000   119.865    77.856    55.914     0.822    46.026     0.212   179.014     0.070     0.074     0.009     0.000     0.001     0.007   132.742     0.025     0.000 .00000E+00 0.000E+00 0.000E+00 0.000E+00 0.000E+00 0.000E+00
BIGSUB   5        0    4.25558E+00   235.800     0.000   119.992    69.308    77.863     0.639    44.821     0.237   175.513     0.065     0.044     0.005     0.000     0.002     0.004   130.382     0.020     0.000 .00000E+00 0.000E+00 0.000E+00 0.000E+00 0.000E+00 0.000E+00
BIGSUB   6        0    4.15319E+00   235.800     0.000   120.066    68.170    95.687     9.367    32.269     3.306   178.253     0.011     0.029     0.004     0.000     0.002     0.003   142.392     0.044     0.000 .00000E+00 0.000E+00 0.000E+00 0.000E+00 0.000E+00 0.000E+00
BIGSUB   7        0    4.13143E+00   235.800     0.000   120.073    73.042    84.268     4.914    40.013     2.487   177.680     0.271     0.428     0.056     0.000     0.001     0.046   134.977     0.043     0.002 .00000E+00 0.000E+00 0.000E+00 0.000E+00 0.000E+00 0.000E+00
BIGSUB   8        0    4.90085E-01   235.800     0.000   120.167    72.169   132.107    14.768    33.130     5.448   175.773     0.435     0.457     0.057     0.002     0.002     0.046   136.723     0.085     0.001 .00000E+00 0.000E+00 0.000E+00 0.000E+00 0.000E+00 0.000E+00
BIGSUB   9        0    4.37142E-01   235.800     0.000   120.191    71.127   106.455    18.880    42.581     8.068   174.047     0.005     0.018     0.002     0.000     0.005     0.002   122.789     0.041     0.001 .00000E+00 0.000E+00 0.000E+00 0.000E+00 0.000E+00 0.000E+00
BIGSUB   1        0    5.24419E+00   487.200     0.000    95.158    59.776   105.402    11.863   145.118     3.086   400.422     0.338     0.616     0.076     0.011     0.008     0.059   252.071     0.512     0.001 .00000E+00 0.000E+00 0.000E+00 0.000E+00 0.000E+00 0.000E+00
BIGSUB   2        0    5.13482E+00   487.200     0.000    95.146    60.568    98.970     8.673   149.009     2.048   400.646     0.189     0.455     0.055     0.011     0.008     0.042   249.486     0.476     0.000 .00000E+00 0.000E+00 0.000E+00 0.000E+00 0.000E+00 0.000E+00
BIGSUB   3        0    5.12733E+00   487.200     0.000    95.106    59.817   105.193    12.486   144.606     3.330   400.289     0.149     0.399     0.049     0.011     0.008     0.037   252.195     0.493     0.001 .00000E+00 0.000E+00 0.000E+00 0.000E+00 0.000E+00 0.000E+00
BIGSUB   4        0    5.18951E+00   487.200     0.000    95.000    67.556    78.416     3.476   153.745     0.729   394.496     0.338     0.486     0.059     0.006     0.006     0.045   239.984     0.276     0.000 .00000E+00 0.000E+00 0.000E+00 0.000E+00 0.000E+00 0.000E+00
BIGSUB   5        0    5.25558E+00   487.200     0.000    95.103    61.490    90.033    10.716   164.911     0.519   403.482     0.294     0.395     0.048     0.013     0.008     0.037   237.971     0.425     0.000 .00000E+00 0.000E+00 0.000E+00 0.000E+00 0.000E+00 0.000E+00
BIGSUB   6        0    5.15319E+00   487.200     0.000    95.163    60.533   112.243    21.380   138.501     6.972   396.080     0.134     0.374     0.046     0.010     0.009     0.035   250.286     0.469     0.001 .00000E+00 0.000E+00 0.000E+00 0.000E+00 0.000E+00 0.000E+00
BIGSUB   7        0    5.13143E+00   487.200     0.000    95.169    61.537   104.778    14.172   150.033     3.975   395.238     1.045     1.576     0.202     0.009     0.007     0.159   241.012     0.478     0.001 .00000E+00 0.000E+00 0.000E+00 0.000E+00 0.000E+00 0.000E+00
BIGSUB   8        0    5.90085E-01   487.200     0.000    95.246    62.010   143.493    36.919   127.347    11.611   389.079     1.331     1.225     0.152     0.009     0.010     0.121   249.585     0.518     0.002 .00000E+00 0.000E+00 0.000E+00 0.000E+00 0.000E+00 0.000E+00
BIGSUB   9        0    5.37142E-01   487.200     0.000    95.265    62.796   119.318    40.490   152.472    14.897   386.677     0.068     0.241     0.029     0.009     0.017     0.022   218.622     0.387     0.002 .00000E+00 0.000E+00 0.000E+00 0.000E+00 0.000E+00 0.000E+00
BIGSUB   1        0    6.24419E+00    92.900     0.000   125.159    59.363    97.953     0.025     2.964     4.750    46.019     0.014     0.026     0.004     0.004     0.000     0.002    38.116     0.048     0.001 .00000E+00 0.000E+00 0.000E+00 0.000E+00 0.000E+00 0.000E+00
BIGSUB   2        0    6.13482E+00    92.900     0.000   125.123    58.744    91.517     0.090     3.213     3.262    45.037     0.007     0.016     0.002     0.004     0.000     0.001    38.427     0.047     0.001 .00000E+00 0.000E+00 0.000E+00 0.000E+00 0.000E+00 0.000E+00
BIGSUB   3        0    6.12733E+00    92.900     0.000   125.002    59.482    97.798     0.000     2.879     5.028    46.163     0.006     0.013     0.002     0.004     0.000     0.001    38.053     0.047     0.001 .00000E+00 0.000E+00 0.000E+00 0.000E+00 0.000E+00 0.000E+00
BIGSUB   4        0    6.18951E+00    92.900     0.000   124.687    55.821    73.665     0.012     3.898     1.200    43.193     0.017     0.017     0.002     0.006     0.000     0.002    38.043     0.046     0.000 .00000E+00 0.000E+00 0.000E+00 0.000E+00 0.000E+00 0.000E+00
BIGSUB   5        0    6.25558E+00    92.900     0.000   124.996    58.684    83.202     0.060     3.697     1.148    42.382     0.017     0.013     0.002     0.005     0.000     0.001    37.407     0.051     0.000 .00000E+00 0.000E+00 0.000E+00 0.000E+00 0.000E+00 0.000E+00
BIGSUB   6        0    6.15319E+00    92.900     0.000   125.175    60.155   105.763     0.166     2.510     9.646    49.207     0.005     0.011     0.001     0.003     0.000     0.001    36.662     0.046     0.001 .00000E+00 0.000E+00 0.000E+00 0.000E+00 0.000E+00 0.000E+00
BIGSUB   7        0    6.13143E+00    92.900     0.000   125.191    57.777    98.287     0.983     3.700     6.328    47.331     0.047     0.078     0.012     0.010     0.000     0.006    37.040     0.056     0.001 .00000E+00 0.000E+00 0.000E+00 0.000E+00 0.000E+00 0.000E+00
BIGSUB   8        0    6.90085E-01    92.900     0.000   125.421    61.899   138.179     0.559     2.923    16.921    53.430     0.109     0.063     0.009     0.003     0.000     0.005    32.929     0.044     0.003 .00000E+00 0.000E+00 0.000E+00 0.000E+00 0.000E+00 0.000E+00
BIGSUB   9        0    6.37142E-01    92.900     0.000   125.480    61.918   114.764     0.790     4.225    19.638    55.269     0.002     0.006     0.001     0.003     0.001     0.001    30.606     0.044     0.003 .00000E+00 0.000E+00 0.000E+00 0.000E+00 0.000E+00 0.000E+00
BIGSUB   1        0    7.24419E+00   253.100     0.000   120.715    73.668   109.316     1.890    55.034     1.939   166.363     0.541     1.138     0.146     0.009     0.004     0.103   109.202     0.290     0.000 .00000E+00 0.000E+00 0.000E+00 0.000E+00 0.000E+00 0.000E+00
BIGSUB   2        0    7.13482E+00   253.100     0.000   120.680    73.091   102.870     1.198    57.321     1.152   166.791     0.428     0.979     0.119     0.008     0.003     0.092   108.184     0.279     0.000 .00000E+00 0.000E+00 0.000E+00 0.000E+00 0.000E+00 0.000E+00
BIGSUB   3        0    7.12733E+00   253.100     0.000   120.561    73.749   109.049     2.119    54.676     2.252   166.491     0.340     0.868     0.106     0.007     0.003     0.082   109.363     0.278     0.000 .00000E+00 0.000E+00 0.000E+00 0.000E+00 0.000E+00 0.000E+00
BIGSUB   4        0    7.18951E+00   253.100     0.000   120.251    70.444    85.722     0.414    64.199     0.393   168.673     0.496     0.877     0.107     0.012     0.004     0.082   104.030     0.321     0.000 .00000E+00 0.000E+00 0.000E+00 0.000E+00 0.000E+00 0.000E+00
BIGSUB   5        0    7.25558E+00   253.100     0.000   120.555    73.308    95.987     0.363    62.048     0.506   165.389     0.400     0.800     0.098     0.008     0.004     0.075   102.702     0.281     0.000 .00000E+00 0.000E+00 0.000E+00 0.000E+00 0.000E+00 0.000E+00
BIGSUB   6        0    7.15319E+00   253.100     0.000   120.731    74.627   116.925     5.013    51.942     5.823   166.598     0.301     0.800     0.098     0.006     0.004     0.075   108.452     0.279     0.000 .00000E+00 0.000E+00 0.000E+00 0.000E+00 0.000E+00 0.000E+00
BIGSUB   7        0    7.13143E+00   253.100     0.000   120.747    72.764   109.930     3.445    59.142     3.490   167.014     0.957     1.772     0.252     0.025     0.009     0.145   104.120     0.365     0.000 .00000E+00 0.000E+00 0.000E+00 0.000E+00 0.000E+00 0.000E+00
BIGSUB   8        0    7.90085E-01   253.100     0.000   120.973    77.330   150.941     7.884    46.437     8.861   162.793     0.982     0.999     0.140     0.011     0.005     0.087   106.851     0.300     0.001 .00000E+00 0.000E+00 0.000E+00 0.000E+00 0.000E+00 0.000E+00
BIGSUB   9        0    7.37142E-01   253.100     0.000   121.031    78.370   125.286    11.333    56.921    13.230   165.205     0.152     0.512     0.063     0.005     0.007     0.048    94.278     0.246     0.001 .00000E+00 0.000E+00 0.000E+00 0.000E+00 0.000E+00 0.000E+00
BIGSUB   1        0    8.24419E+00   264.700     0.000   131.535    75.475   100.396     5.239    60.917     1.882   196.671     0.760     1.759     0.218     0.016     0.004     0.166   133.701     0.334     0.000 .00000E+00 0.000E+00 0.000E+00 0.000E+00 0.000E+00 0.000E+00
BIGSUB   2        0    8.13482E+00   264.700     0.000   131.507    75.077    94.647     3.672    64.135     1.283   197.297     0.673     1.633     0.199     0.013     0.003     0.155   131.757     0.321     0.000 .00000E+00 0.000E+00 0.000E+00 0.000E+00 0.000E+00 0.000E+00
BIGSUB   3        0    8.12733E+00   264.700     0.000   131.414    75.529   100.155     5.499    60.415     2.037   196.500     0.535     1.450     0.177     0.011     0.003     0.137   133.864     0.320     0.000 .00000E+00 0.000E+00 0.000E+00 0.000E+00 0.000E+00 0.000E+00
BIGSUB   4        0    8.18951E+00   264.700     0.000   131.170    72.335    79.843     1.403    74.218     0.449   199.050     0.684     1.385     0.169     0.023     0.004     0.131   124.337     0.334     0.000 .00000E+00 0.000E+00 0.000E+00 0.000E+00 0.000E+00 0.000E+00
BIGSUB   5        0    8.25558E+00   264.700     0.000   131.409    74.802    86.158     3.886    71.306     0.470   198.096     0.539     1.356     0.165     0.014     0.004     0.128   126.202     0.322     0.000 .00000E+00 0.000E+00 0.000E+00 0.000E+00 0.000E+00 0.000E+00
BIGSUB   6        0    8.15319E+00   264.700     0.000   131.547    76.022   107.215    10.095    56.528     4.557   194.889     0.472     1.322     0.161     0.010     0.004     0.125   133.452     0.315     0.001 .00000E+00 0.000E+00 0.000E+00 0.000E+00 0.000E+00 0.000E+00
BIGSUB   7        0    8.13143E+00   264.700     0.000   131.560    74.591   101.124     7.028    66.365     3.148   197.043     0.955     1.954     0.258     0.048     0.010     0.184   127.285     0.413     0.000 .00000E+00 0.000E+00 0.000E+00 0.000E+00 0.000E+00 0.000E+00
BIGSUB   8        0    8.90085E-01   264.700     0.000   131.737    78.500   137.833    17.113    48.803     7.565   191.999     0.778     1.118     0.146     0.019     0.005     0.106   135.036     0.359     0.001 .00000E+00 0.000E+00 0.000E+00 0.000E+00 0.000E+00 0.000E+00
BIGSUB   9        0    8.37142E-01   264.700     0.000   131.783    79.092   113.494    19.756    61.845    11.667   191.541     0.236     0.832     0.102     0.008     0.007     0.078   117.305     0.270     0.002 .00000E+00 0.000E+00 0.000E+00 0.000E+00 0.000E+00 0.000E+00
BIGSUB   1        0    9.24419E+00   159.600     0.000   139.419    62.443    91.987     1.734    31.579     3.059   107.317     0.764     1.487     0.183     0.005     0.002     0.142    72.506     0.113     0.000 .00000E+00 0.000E+00 0.000E+00 0.000E+00 0.000E+00 0.000E+00
BIGSUB   2        0    9.13482E+00   159.600     0.000   139.392    62.045    86.292     1.127    33.542     1.985   107.149     0.694     1.437     0.175     0.004     0.002     0.136    71.500     0.106     0.000 .00000E+00 0.000E+00 0.000E+00 0.000E+00 0.000E+00 0.000E+00
BIGSUB   3        0    9.12733E+00   159.600     0.000   139.303    62.480    91.733     1.863    31.303     3.335   107.450     0.547     1.302     0.159     0.003     0.002     0.123    72.628     0.109     0.000 .00000E+00 0.000E+00 0.000E+00 0.000E+00 0.000E+00 0.000E+00
BIGSUB   4        0    9.18951E+00   159.600     0.000   139.069    59.609    72.479     0.420    39.991     0.720   107.968     0.703     1.183     0.144     0.007     0.002     0.112    67.209     0.108     0.000 .00000E+00 0.000E+00 0.000E+00 0.000E+00 0.000E+00 0.000E+00
BIGSUB   5        0    9.25558E+00   159.600     0.000   139.298    61.710    78.501     0.799    36.644     0.620   105.735     0.531     1.223     0.149     0.004     0.002     0.115    68.354     0.108     0.000 .00000E+00 0.000E+00 0.000E+00 0.000E+00 0.000E+00 0.000E+00
BIGSUB   6        0    9.15319E+00   159.600     0.000   139.430    63.121    98.788     3.862    29.046     6.655   108.294     0.480     1.172     0.143     0.003     0.002     0.111    72.238     0.111     0.001 .00000E+00 0.000E+00 0.000E+00 0.000E+00 0.000E+00 0.000E+00
BIGSUB   7        0    9.13143E+00   159.600     0.000   139.443    61.982    92.929     2.497    34.762     4.300   108.121     0.875     1.509     0.195     0.014     0.005     0.147    68.812     0.142     0.001 .00000E+00 0.000E+00 0.000E+00 0.000E+00 0.000E+00 0.000E+00
BIGSUB   8        0    9.90085E-01   159.600     0.000   139.613    65.901   128.895     6.229    24.158    11.223   108.447     0.638     0.794     0.102     0.006     0.003     0.077    72.469     0.134     0.002 .00000E+00 0.000E+00 0.000E+00 0.000E+00 0.000E+00 0.000E+00
BIGSUB   9        0    9.37142E-01   159.600     0.000   139.657    66.336   105.315     8.122    30.238    13.556   107.796     0.236     0.729     0.089     0.003     0.003     0.068    63.278     0.101     0.002 .00000E+00 0.000E+00 0.000E+00 0.000E+00 0.000E+00 0.000E+00
BIGSUB   1        0   10.24419E+00   191.400     0.000   132.524    54.469   108.218     0.535    35.090     0.843   114.076     0.653     1.820     0.223     0.029     0.002     0.175    77.979     0.128     0.000 .00000E+00 0.000E+00 0.000E+00 0.000E+00 0.000E+00 0.000E+00
BIGSUB   2        0   10.13482E+00   191.400     0.000   132.507    54.034   101.930     0.192    37.262     0.494   115.110     0.615     1.778     0.217     0.027     0.002     0.169    77.238     0.121     0.000 .00000E+00 0.000E+00 0.000E+00 0.000E+00 0.000E+00 0.000E+00
BIGSUB   3        0   10.12733E+00   191.400     0.000   132.447    54.511   107.956     0.665    34.702     0.976   114.033     0.485     1.630     0.199     0.024     0.002     0.155    78.179     0.125     0.000 .00000E+00 0.000E+00 0.000E+00 0.000E+00 0.000E+00 0.000E+00
BIGSUB   4        0   10.18951E+00   191.400     0.000   132.290    52.111    87.008     0.066    45.582     0.155   118.256     0.621     1.555     0.190     0.043     0.002     0.148    72.475     0.121     0.000 .00000E+00 0.000E+00 0.000E+00 0.000E+00 0.000E+00 0.000E+00
BIGSUB   5        0   10.25558E+00   191.400     0.000   132.443    53.822    94.274     0.154    41.194     0.216   115.217     0.457     1.625     0.198     0.029     0.002     0.154    73.697     0.127     0.000 .00000E+00 0.000E+00 0.000E+00 0.000E+00 0.000E+00 0.000E+00
BIGSUB   6        0   10.15319E+00   191.400     0.000   132.532    55.172   116.074     2.256    32.352     3.020   112.978     0.425     1.473     0.180     0.022     0.002     0.140    77.266     0.130     0.000 .00000E+00 0.000E+00 0.000E+00 0.000E+00 0.000E+00 0.000E+00
BIGSUB   7        0   10.13143E+00   191.400     0.000   132.541    54.201   109.379     0.991    39.530     1.708   114.872     0.641     1.701     0.214     0.068     0.005     0.170    73.400     0.151     0.000 .00000E+00 0.000E+00 0.000E+00 0.000E+00 0.000E+00 0.000E+00
BIGSUB   8        0   10.90085E-01   191.400     0.000   132.655    57.440   150.159     2.745    28.189     4.068   107.734     0.367     0.954     0.120     0.028     0.003     0.094    74.909     0.141     0.000 .00000E+00 0.000E+00 0.000E+00 0.000E+00 0.000E+00 0.000E+00
BIGSUB   9        0   10.37142E-01   191.400     0.000   132.684    57.334   124.939     5.768    35.616     5.914   109.049     0.211     0.965     0.118     0.017     0.004     0.091    66.824     0.124     0.001 .00000E+00 0.000E+00 0.000E+00 0.000E+00 0.000E+00 0.000E+00
BIGSUB   1        0   11.24419E+00   422.800     0.000   144.436    77.423   111.261     9.975   116.754     1.890   339.536     4.308     9.057     1.109     0.010     0.006     0.869   220.734     0.541     0.000 .00000E+00 0.000E+00 0.000E+00 0.000E+00 0.000E+00 0.000E+00
BIGSUB   2        0   11.13482E+00   422.800     0.000   144.428    76.893   105.696     7.442   123.102     1.281   341.146     4.116     8.920     1.089     0.009     0.005     0.851   216.652     0.526     0.000 .00000E+00 0.000E+00 0.000E+00 0.000E+00 0.000E+00 0.000E+00
BIGSUB   3        0   11.12733E+00   422.800     0.000   144.402    77.459   110.977    10.513   115.882     2.144   339.272     3.243     8.513     1.039     0.008     0.006     0.809   221.077     0.525     0.000 .00000E+00 0.000E+00 0.000E+00 0.000E+00 0.000E+00 0.000E+00
BIGSUB   4        0   11.18951E+00   422.800     0.000   144.335    75.174    93.331     2.931   145.309     0.461   343.584     4.221     8.043     0.981     0.016     0.006     0.764   197.771     0.487     0.000 .00000E+00 0.000E+00 0.000E+00 0.000E+00 0.000E+00 0.000E+00
BIGSUB   5        0   11.25558E+00   422.800     0.000   144.401    76.716    97.819     6.887   134.238     0.525   341.126     2.960     8.572     1.046     0.010     0.006     0.814   206.259     0.473     0.000 .00000E+00 0.000E+00 0.000E+00 0.000E+00 0.000E+00 0.000E+00
BIGSUB   6        0   11.15319E+00   422.800     0.000   144.439    77.929   118.384    18.127   108.966     4.638   334.537     2.848     7.823     0.955     0.007     0.006     0.742   220.607     0.511     0.001 .00000E+00 0.000E+00 0.000E+00 0.000E+00 0.000E+00 0.000E+00
BIGSUB   7        0   11.13143E+00   422.800     0.000   144.443    76.877   112.818    12.183   127.109     2.993   338.305     3.966     8.254     1.026     0.023     0.012     0.820   207.984     0.593     0.001 .00000E+00 0.000E+00 0.000E+00 0.000E+00 0.000E+00 0.000E+00
BIGSUB   8        0   11.90085E-01   422.800     0.000   144.492    79.216   150.254    30.418    93.303     7.696   326.267     1.825     5.634     0.696     0.013     0.008     0.543   224.729     0.542     0.002 .00000E+00 0.000E+00 0.000E+00 0.000E+00 0.000E+00 0.000E+00
BIGSUB   9        0   11.37142E-01   422.800     0.000   144.505    79.394   125.604    33.905   118.326    10.989   325.012     1.410     5.390     0.658     0.006     0.013     0.505   195.034     0.438     0.003 .00000E+00 0.000E+00 0.000E+00 0.000E+00 0.000E+00 0.000E+00
BIGSUB   1        0   12.24419E+00   695.900     0.000   144.786    75.473   114.101    16.846   319.979     4.822   596.548    24.042    30.860     3.772     0.010     0.012     2.952   271.536     0.638     0.001 .00000E+00 0.000E+00 0.000E+00 0.000E+00 0.000E+00 0.000E+00
BIGSUB   2        0   12.13482E+00   695.900     0.000   144.777    75.110   108.978    13.175   331.379     3.360   598.791    23.083    30.252     3.693     0.011     0.012     2.885   263.900     0.630     0.001 .00000E+00 0.000E+00 0.000E+00 0.000E+00 0.000E+00 0.000E+00
BIGSUB   3        0   12.12733E+00   695.900     0.000   144.747    75.491   113.756    17.767   318.716     5.150   596.007    18.404    31.526     3.849     0.009     0.013     2.993   271.917     0.624     0.001 .00000E+00 0.000E+00 0.000E+00 0.000E+00 0.000E+00 0.000E+00
BIGSUB   4        0   12.18951E+00   695.900     0.000   144.669    73.802   100.125     5.987   371.399     1.222   602.571    23.994    27.840     3.396     0.017     0.012     2.648   229.891     0.527     0.000 .00000E+00 0.000E+00 0.000E+00 0.000E+00 0.000E+00 0.000E+00
BIGSUB   5        0   12.25558E+00   695.900     0.000   144.746    74.756   100.682    12.734   347.789     1.247   598.286    16.056    30.566     3.731     0.011     0.013     2.905   249.108     0.490     0.000 .00000E+00 0.000E+00 0.000E+00 0.000E+00 0.000E+00 0.000E+00
BIGSUB   6        0   12.15319E+00   695.900     0.000   144.790    75.915   121.065    28.245   306.539     9.942   590.226    16.386    31.135     3.802     0.009     0.015     2.941   273.328     0.594     0.003 .00000E+00 0.000E+00 0.000E+00 0.000E+00 0.000E+00 0.000E+00
BIGSUB   7        0   12.13143E+00   695.900     0.000   144.794    75.180   116.542    18.781   336.567     6.506   596.172    21.175    28.751     3.547     0.021     0.021     2.828   252.819     0.630     0.003 .00000E+00 0.000E+00 0.000E+00 0.000E+00 0.000E+00 0.000E+00
BIGSUB   8        0   12.90085E-01   695.900     0.000   144.851    77.326   152.720    45.207   273.983    17.220   579.376     9.569    30.314     3.713     0.014     0.021     2.863   287.488     0.573     0.005 .00000E+00 0.000E+00 0.000E+00 0.000E+00 0.000E+00 0.000E+00
BIGSUB   9        0   12.37142E-01   695.900     0.000   144.866    77.176   130.018    49.347   313.247    20.224   577.881     8.328    25.953     3.170     0.012     0.031     2.413   243.587     0.491     0.007 .00000E+00 0.000E+00 0.000E+00 0.000E+00 0.000E+00 0.000E+00
BIGSUB   1        0 2009.24419E+00  3539.000     0.000  1610.195   942.773   114.101    54.748   856.150    29.313  2548.655    34.201    51.331     6.292     0.183     0.041     4.924  1661.186     3.020     0.005 .00000E+00 0.000E+00 0.000E+00 0.000E+00 0.000E+00 0.000E+00
BIGSUB   2        0 2009.13482E+00  3539.000     0.000  1609.987   938.950   108.978    40.029   893.951    19.322  2556.566    32.429    50.018     6.106     0.091     0.039     4.780  1641.874     2.779     0.004 .00000E+00 0.000E+00 0.000E+00 0.000E+00 0.000E+00 0.000E+00
BIGSUB   3        0 2009.12733E+00  3539.000     0.000  1609.292   943.058   113.756    58.196   850.077    32.118  2547.917    25.691    49.568     6.052     0.079     0.041     4.717  1663.581     2.802     0.005 .00000E+00 0.000E+00 0.000E+00 0.000E+00 0.000E+00 0.000E+00
BIGSUB   4        0 2009.18951E+00  3539.000     0.000  1607.473   932.521   100.125    16.189  1029.701     6.778  2572.914    35.013    48.015     5.859     0.139     0.040     4.584  1535.893     2.481     0.001 .00000E+00 0.000E+00 0.000E+00 0.000E+00 0.000E+00 0.000E+00
BIGSUB   5        0 2009.25558E+00  3539.000     0.000  1609.255   940.416   100.682    37.229   978.463     6.575  2545.730    23.455    49.212     6.008     0.100     0.043     4.686  1559.378     2.531     0.001 .00000E+00 0.000E+00 0.000E+00 0.000E+00 0.000E+00 0.000E+00
BIGSUB   6        0 2009.15319E+00  3539.000     0.000  1610.287   951.774   121.065   106.398   809.479    71.012  2532.237    22.782    47.553     5.807     0.074     0.046     4.507  1647.594     2.753     0.014 .00000E+00 0.000E+00 0.000E+00 0.000E+00 0.000E+00 0.000E+00
BIGSUB   7        0 2009.13143E+00  3539.000     0.000  1610.383   942.851   116.542    72.520   927.312    45.868  2548.375    33.015    51.477     6.443     0.675     0.075     5.062  1572.334     4.061     0.017 .00000E+00 0.000E+00 0.000E+00 0.000E+00 0.000E+00 0.000E+00
BIGSUB   8        0 2009.90085E-01  3539.001     0.000  1611.711   976.485   152.720   175.641   736.348   116.049  2485.825    17.751    44.775     5.533     0.414     0.061     4.264  1626.512     3.299     0.023 .00000E+00 0.000E+00 0.000E+00 0.000E+00 0.000E+00 0.000E+00
BIGSUB   9        0 2009.37142E-01  3539.001     0.000  1612.051   980.322   130.018   209.814   891.370   156.866  2490.489    11.488    36.904     4.507     0.095     0.097     3.446  1433.716     2.493     0.031 .00000E+00 0.000E+00 0.000E+00 0.000E+00 0.000E+00 0.000E+00
BIGSUB   1        0    1.24419E+00   719.300     0.000   126.082    95.704   113.468    17.360   320.468     7.943   612.681    45.196    52.177     6.378     0.003     0.019     5.106   283.961     0.577     0.003 .00000E+00 0.000E+00 0.000E+00 0.000E+00 0.000E+00 0.000E+00
BIGSUB   2        0    1.13482E+00   719.300     0.000   126.084    95.424   108.284    13.842   331.408     5.567   614.477    43.891    52.007     6.356     0.003     0.020     5.097   277.271     0.586     0.002 .00000E+00 0.000E+00 0.000E+00 0.000E+00 0.000E+00 0.000E+00
BIGSUB   3        0    1.12733E+00   719.300     0.000   126.090    95.736   113.060    18.293   319.231     8.389   612.233    34.695    50.685     6.194     0.003     0.020     4.946   284.285     0.565     0.003 .00000E+00 0.000E+00 0.000E+00 0.000E+00 0.000E+00 0.000E+00
BIGSUB   4        0    1.18951E+00   719.300     0.000   126.105    94.692    99.421     7.417   371.679     2.038   619.217    51.391    55.484     6.779     0.005     0.021     5.437   245.401     0.570     0.001 .00000E+00 0.000E+00 0.000E+00 0.000E+00 0.000E+00 0.000E+00
BIGSUB   5        0    1.25558E+00   719.300     0.000   126.090    95.612    99.993    13.381   346.796     2.073   611.742    30.786    50.178     6.131     0.004     0.021     4.907   262.653     0.447     0.001 .00000E+00 0.000E+00 0.000E+00 0.000E+00 0.000E+00 0.000E+00
BIGSUB   6        0    1.15319E+00   719.300     0.000   126.081    96.190   120.374    28.652   307.916    15.658   608.580    30.949    49.202     6.012     0.003     0.022     4.776   284.434     0.533     0.007 .00000E+00 0.000E+00 0.000E+00 0.000E+00 0.000E+00 0.000E+00
BIGSUB   7        0    1.13143E+00   719.300     0.000   126.081    95.600   115.861    20.040   336.359    10.246   613.053    40.173    50.171     6.150     0.006     0.023     4.915   266.063     0.580     0.007 .00000E+00 0.000E+00 0.000E+00 0.000E+00 0.000E+00 0.000E+00
BIGSUB   8        0    1.90085E-01   719.300     0.000   126.069    97.482   152.234    45.894   277.578    27.534   600.606    16.885    44.755     5.472     0.005     0.025     4.269   294.561     0.493     0.012 .00000E+00 0.000E+00 0.000E+00 0.000E+00 0.000E+00 0.000E+00
BIGSUB   9        0    1.37142E-01   719.300     0.000   126.067    98.884   127.485    49.968   318.361    30.705   601.867    15.696    39.129     4.781     0.004     0.036     3.728   251.718     0.431     0.014 .00000E+00 0.000E+00 0.000E+00 0.000E+00 0.000E+00 0.000E+00
BIGSUB   1        0    2.24419E+00   402.000     0.000   128.586    96.818    97.757     9.035   135.513     9.420   335.272     5.011     2.714     0.332     0.193     0.002     0.265   189.953     0.410     0.004 .00000E+00 0.000E+00 0.000E+00 0.000E+00 0.000E+00 0.000E+00
BIGSUB   2        0    2.13482E+00   402.000     0.000   128.584    96.288    92.513     7.042   142.827     6.611   334.404     4.770     2.902     0.355     0.001     0.002     0.284   184.672     0.195     0.003 .00000E+00 0.000E+00 0.000E+00 0.000E+00 0.000E+00 0.000E+00
BIGSUB   3        0    2.12733E+00   402.000     0.000   128.576    96.972    97.294     9.554   134.529     9.923   335.193     3.657     3.130     0.382     0.000     0.002     0.305   190.334     0.181     0.004 .00000E+00 0.000E+00 0.000E+00 0.000E+00 0.000E+00 0.000E+00
BIGSUB   4        0    2.18951E+00   402.000     0.000   128.556    93.401    83.928     3.524   171.380     2.432   333.885     7.082     3.708     0.453     0.004     0.002     0.364   159.936     0.174     0.001 .00000E+00 0.000E+00 0.000E+00 0.000E+00 0.000E+00 0.000E+00
BIGSUB   5        0    2.25558E+00   402.000     0.000   128.576    95.984    84.993     6.413   153.049     2.469   329.445     3.558     3.752     0.458     0.001     0.002     0.367   173.644     0.129     0.001 .00000E+00 0.000E+00 0.000E+00 0.000E+00 0.000E+00 0.000E+00
BIGSUB   6        0    2.15319E+00   402.000     0.000   128.588    97.541   104.755    15.613   127.162    18.255   337.293     3.242     3.128     0.382     0.005     0.003     0.303   191.194     0.169     0.008 .00000E+00 0.000E+00 0.000E+00 0.000E+00 0.000E+00 0.000E+00
BIGSUB   7        0    2.13143E+00   402.000     0.000   128.589    95.336   100.632    10.398   147.115    11.814   336.515     5.691     3.811     0.473     0.997     0.002     0.379   177.123     1.740     0.009 .00000E+00 0.000E+00 0.000E+00 0.000E+00 0.000E+00 0.000E+00
BIGSUB   8        0    2.90085E-01   402.000     0.000   128.604    98.646   137.233    24.940   108.227    32.708   342.778     2.606     3.731     0.457     0.447     0.004     0.357   200.741     0.707     0.015 .00000E+00 0.000E+00 0.000E+00 0.000E+00 0.000E+00 0.000E+00
BIGSUB   9        0    2.37142E-01   402.000     0.000   128.607    99.745   112.217    27.705   132.549    35.231   339.008     1.604     2.840     0.347     0.015     0.010     0.270   169.980     0.219     0.016 .00000E+00 0.000E+00 0.000E+00 0.000E+00 0.000E+00 0.000E+00
BIGSUB   1        0    3.24419E+00   126.800     0.000   149.996    98.182    61.284     0.005     9.122     8.686    73.391     0.027     0.010     0.001     0.000     0.000     0.001    55.114     0.001     0.002 .00000E+00 0.000E+00 0.000E+00 0.000E+00 0.000E+00 0.000E+00
BIGSUB   2        0    3.13482E+00   126.800     0.000   149.988    97.887    55.033     0.003     9.654     5.956    71.843     0.005     0.004     0.000     0.000     0.000     0.000    55.869     0.002     0.002 .00000E+00 0.000E+00 0.000E+00 0.000E+00 0.000E+00 0.000E+00
BIGSUB   3        0    3.12733E+00   126.800     0.000   149.964    98.106    61.114     0.000     8.855     9.132    73.652     0.004     0.003     0.000     0.000     0.000     0.000    55.168     0.001     0.002 .00000E+00 0.000E+00 0.000E+00 0.000E+00 0.000E+00 0.000E+00
BIGSUB   4        0    3.18951E+00   126.800     0.000   149.899    97.366    44.416     0.000    13.783     2.191    70.463     0.037     0.008     0.001     0.000     0.000     0.001    54.316     0.001     0.001 .00000E+00 0.000E+00 0.000E+00 0.000E+00 0.000E+00 0.000E+00
BIGSUB   5        0    3.25558E+00   126.800     0.000   149.962    97.631    48.722     0.012    10.890     1.921    66.864     0.036     0.005     0.001     0.000     0.000     0.000    53.708     0.002     0.000 .00000E+00 0.000E+00 0.000E+00 0.000E+00 0.000E+00 0.000E+00
BIGSUB   6        0    3.15319E+00   126.800     0.000   149.999    98.608    70.963     0.012     8.722    16.829    78.814     0.004     0.004     0.001     0.000     0.000     0.000    52.445     0.001     0.004 .00000E+00 0.000E+00 0.000E+00 0.000E+00 0.000E+00 0.000E+00
BIGSUB   7        0    3.13143E+00   126.800     0.000   150.002    98.853    63.594     0.000    11.913    10.203    74.892     0.123     0.083     0.011     0.000     0.000     0.008    52.223     0.004     0.007 .00000E+00 0.000E+00 0.000E+00 0.000E+00 0.000E+00 0.000E+00
BIGSUB   8        0    3.90085E-01   126.800     0.000   150.050    98.543   108.308     0.023    11.479    30.099    87.871     0.253     0.114     0.014     0.002     0.000     0.011    44.972     0.003     0.008 .00000E+00 0.000E+00 0.000E+00 0.000E+00 0.000E+00 0.000E+00
BIGSUB   9        0    3.37142E-01   126.800     0.000   150.062    96.682    86.180     0.012    13.969    32.358    89.328     0.002     0.004     0.000     0.000     0.001     0.000    41.521     0.010     0.008 .00000E+00 0.000E+00 0.000E+00 0.000E+00 0.000E+00 0.000E+00
BIGSUB   1        0    4.24419E+00   262.700     0.000   118.485    92.911    78.194     0.088    18.381     1.825   152.887     0.036     0.015     0.002     0.016     0.000     0.001   132.283     0.082     0.000 .00000E+00 0.000E+00 0.000E+00 0.000E+00 0.000E+00 0.000E+00
BIGSUB   2        0    4.13482E+00   262.700     0.000   118.475    92.710    70.457     0.171    19.062     1.126   153.717     0.008     0.006     0.001     0.001     0.000     0.001   133.222     0.051     0.000 .00000E+00 0.000E+00 0.000E+00 0.000E+00 0.000E+00 0.000E+00
BIGSUB   3        0    4.12733E+00   262.700     0.000   118.444    92.782    78.449     0.000    17.981     1.974   152.848     0.006     0.006     0.001     0.001     0.000     0.001   132.472     0.053     0.000 .00000E+00 0.000E+00 0.000E+00 0.000E+00 0.000E+00 0.000E+00
BIGSUB   4        0    4.18951E+00   262.700     0.000   118.361    94.945    55.355     0.013    25.551     0.353   155.384     0.060     0.011     0.001     0.000     0.000     0.001   129.331     0.030     0.000 .00000E+00 0.000E+00 0.000E+00 0.000E+00 0.000E+00 0.000E+00
BIGSUB   5        0    4.25558E+00   262.700     0.000   118.442    93.073    64.382     0.249    22.944     0.467   152.389     0.063     0.008     0.001     0.001     0.000     0.001   128.686     0.045     0.000 .00000E+00 0.000E+00 0.000E+00 0.000E+00 0.000E+00 0.000E+00
BIGSUB   6        0    4.15319E+00   262.700     0.000   118.489    93.685    91.140     0.439    18.416     5.238   152.247     0.006     0.007     0.001     0.001     0.001     0.001   127.903     0.050     0.001 .00000E+00 0.000E+00 0.000E+00 0.000E+00 0.000E+00 0.000E+00
BIGSUB   7        0    4.13143E+00   262.700     0.000   118.493    94.807    79.672     0.550    23.734     2.558   152.262     0.182     0.130     0.017     0.144     0.000     0.013   125.504     0.277     0.001 .00000E+00 0.000E+00 0.000E+00 0.000E+00 0.000E+00 0.000E+00
BIGSUB   8        0    4.90085E-01   262.700     0.000   118.554    95.872   132.430     1.388    25.792     7.780   148.189     0.433     0.177     0.022     0.016     0.001     0.017   113.503     0.121     0.001 .00000E+00 0.000E+00 0.000E+00 0.000E+00 0.000E+00 0.000E+00
BIGSUB   9        0    4.37142E-01   262.700     0.000   118.570    95.840   112.908     2.170    30.418    10.712   148.091     0.003     0.007     0.001     0.001     0.003     0.001   105.717     0.042     0.001 .00000E+00 0.000E+00 0.000E+00 0.000E+00 0.000E+00 0.000E+00
BIGSUB   1        0    5.24419E+00   168.000     0.000    94.702    56.755    84.876     0.187     8.597     0.429   107.320     0.024     0.010     0.001     0.004     0.000     0.001    97.966     0.141     0.000 .00000E+00 0.000E+00 0.000E+00 0.000E+00 0.000E+00 0.000E+00
BIGSUB   2        0    5.13482E+00   168.000     0.000    94.701    56.976    75.962     0.180     9.058     0.381   108.144     0.008     0.005     0.001     0.002     0.000     0.000    98.450     0.133     0.000 .00000E+00 0.000E+00 0.000E+00 0.000E+00 0.000E+00 0.000E+00
BIGSUB   3        0    5.12733E+00   168.000     0.000    94.696    56.732    84.583     0.598     8.427     0.620   107.699     0.006     0.006     0.001     0.002     0.000     0.000    98.305     0.138     0.000 .00000E+00 0.000E+00 0.000E+00 0.000E+00 0.000E+00 0.000E+00
BIGSUB   4        0    5.18951E+00   168.000     0.000    94.685    61.968    57.191     0.023    12.308     0.075   106.296     0.036     0.007     0.001     0.001     0.000     0.001    93.791     0.076     0.000 .00000E+00 0.000E+00 0.000E+00 0.000E+00 0.000E+00 0.000E+00
BIGSUB   5        0    5.25558E+00   168.000     0.000    94.696    57.643    70.867     0.179    11.918     0.264   106.344     0.039     0.008     0.001     0.001     0.000     0.001    93.919     0.090     0.000 .00000E+00 0.000E+00 0.000E+00 0.000E+00 0.000E+00 0.000E+00
BIGSUB   6        0    5.15319E+00   168.000     0.000    94.703    57.773    95.208     3.875     8.534     2.648   107.666     0.006     0.007     0.001     0.002     0.000     0.001    95.901     0.125     0.000 .00000E+00 0.000E+00 0.000E+00 0.000E+00 0.000E+00 0.000E+00
BIGSUB   7        0    5.13143E+00   168.000     0.000    94.703    58.412    84.938     1.930    11.397     1.302   106.157     0.107     0.076     0.010     0.012     0.000     0.007    93.065     0.122     0.000 .00000E+00 0.000E+00 0.000E+00 0.000E+00 0.000E+00 0.000E+00
BIGSUB   8        0    5.90085E-01   168.000     0.000    94.711    60.797   140.244     3.869    11.595     3.958   102.523     0.249     0.088     0.011     0.003     0.000     0.009    86.033     0.111     0.000 .00000E+00 0.000E+00 0.000E+00 0.000E+00 0.000E+00 0.000E+00
BIGSUB   9        0    5.37142E-01   168.000     0.000    94.713    61.723   110.280    11.492    18.049     7.141   107.539     0.003     0.006     0.001     0.002     0.002     0.001    81.273     0.097     0.000 .00000E+00 0.000E+00 0.000E+00 0.000E+00 0.000E+00 0.000E+00
BIGSUB   1        0    6.24419E+00   128.300     0.000    78.937    57.933    84.965     1.408     0.199     0.400    70.291     0.003     0.001     0.000     0.000     0.000     0.000    69.445     0.182     0.000 .00000E+00 0.000E+00 0.000E+00 0.000E+00 0.000E+00 0.000E+00
BIGSUB   2        0    6.13482E+00   128.300     0.000    78.925    57.575    77.391     0.513     0.229     0.194    69.962     0.000     0.000     0.000     0.000     0.000     0.000    69.347     0.177     0.000 .00000E+00 0.000E+00 0.000E+00 0.000E+00 0.000E+00 0.000E+00
BIGSUB   3        0    6.12733E+00   128.300     0.000    78.884    58.126    84.594     1.500     0.129     0.554    70.251     0.000     0.000     0.000     0.000     0.000     0.000    69.303     0.182     0.000 .00000E+00 0.000E+00 0.000E+00 0.000E+00 0.000E+00 0.000E+00
BIGSUB   4        0    6.18951E+00   128.300     0.000    78.778    55.786    60.677     0.160     0.621     0.023    69.803     0.008     0.000     0.000     0.000     0.000     0.000    69.069     0.132     0.000 .00000E+00 0.000E+00 0.000E+00 0.000E+00 0.000E+00 0.000E+00
BIGSUB   5        0    6.25558E+00   128.300     0.000    78.882    57.898    73.598     0.164     0.672     0.179    68.629     0.010     0.001     0.000     0.000     0.000     0.000    67.596     0.132     0.000 .00000E+00 0.000E+00 0.000E+00 0.000E+00 0.000E+00 0.000E+00
BIGSUB   6        0    6.15319E+00   128.300     0.000    78.942    58.597    94.815     3.183     0.131     2.908    71.010     0.000     0.000     0.000     0.000     0.000     0.000    67.508     0.167     0.000 .00000E+00 0.000E+00 0.000E+00 0.000E+00 0.000E+00 0.000E+00
BIGSUB   7        0    6.13143E+00   128.300     0.000    78.948    56.029    86.882     2.967     0.927     1.742    70.217     0.018     0.012     0.002     0.000     0.000     0.001    67.236     0.156     0.000 .00000E+00 0.000E+00 0.000E+00 0.000E+00 0.000E+00 0.000E+00
BIGSUB   8        0    6.90085E-01   128.300     0.000    79.025    59.726   138.580     6.137     2.442     3.414    68.875     0.084     0.030     0.004     0.001     0.000     0.003    62.285     0.157     0.000 .00000E+00 0.000E+00 0.000E+00 0.000E+00 0.000E+00 0.000E+00
BIGSUB   9        0    6.37142E-01   128.300     0.000    79.045    60.265   108.776     7.496     4.943     7.915    71.417     0.000     0.000     0.000     0.000     0.001     0.000    57.671     0.136     0.000 .00000E+00 0.000E+00 0.000E+00 0.000E+00 0.000E+00 0.000E+00
BIGSUB   1        0    7.24419E+00   210.700     0.000    91.947    64.074    98.888     2.712    13.926     0.672   120.935     0.075     0.059     0.009     0.007     0.001     0.004   106.131     0.294     0.000 .00000E+00 0.000E+00 0.000E+00 0.000E+00 0.000E+00 0.000E+00
BIGSUB   2        0    7.13482E+00   210.700     0.000    91.933    63.525    91.594     1.913    14.746     0.325   121.697     0.050     0.030     0.004     0.003     0.001     0.003   106.471     0.280     0.000 .00000E+00 0.000E+00 0.000E+00 0.000E+00 0.000E+00 0.000E+00
BIGSUB   3        0    7.12733E+00   210.700     0.000    91.886    64.154    98.494     2.896    13.545     0.800   120.809     0.039     0.034     0.004     0.003     0.000     0.003   106.244     0.276     0.000 .00000E+00 0.000E+00 0.000E+00 0.000E+00 0.000E+00 0.000E+00
BIGSUB   4        0    7.18951E+00   210.700     0.000    91.764    61.788    75.294     0.679    19.334     0.085   124.507     0.080     0.024     0.003     0.006     0.001     0.002   105.015     0.287     0.000 .00000E+00 0.000E+00 0.000E+00 0.000E+00 0.000E+00 0.000E+00
BIGSUB   5        0    7.25558E+00   210.700     0.000    91.884    64.327    90.542     0.326    20.224     0.136   120.561     0.092     0.057     0.007     0.003     0.001     0.005   100.057     0.218     0.000 .00000E+00 0.000E+00 0.000E+00 0.000E+00 0.000E+00 0.000E+00
BIGSUB   6        0    7.15319E+00   210.700     0.000    91.953    64.944   108.131     5.906    12.910     2.103   119.168     0.035     0.035     0.004     0.003     0.001     0.003   103.757     0.260     0.000 .00000E+00 0.000E+00 0.000E+00 0.000E+00 0.000E+00 0.000E+00
BIGSUB   7        0    7.13143E+00   210.700     0.000    91.960    63.126   101.035     4.550    17.744     2.170   121.808     0.175     0.181     0.033     0.019     0.003     0.012   101.620     0.346     0.000 .00000E+00 0.000E+00 0.000E+00 0.000E+00 0.000E+00 0.000E+00
BIGSUB   8        0    7.90085E-01   210.700     0.000    92.049    67.596   149.800    10.304    16.082     3.798   116.360     0.318     0.171     0.024     0.012     0.001     0.012    95.843     0.288     0.000 .00000E+00 0.000E+00 0.000E+00 0.000E+00 0.000E+00 0.000E+00
BIGSUB   9        0    7.37142E-01   210.700     0.000    92.072    68.276   120.711    12.776    21.142     6.245   116.150     0.019     0.035     0.004     0.003     0.002     0.003    87.978     0.214     0.000 .00000E+00 0.000E+00 0.000E+00 0.000E+00 0.000E+00 0.000E+00
BIGSUB   1        0    8.24419E+00   109.700     0.000   110.984    63.533    90.937     0.369     3.676     1.172    64.991     0.039     0.025     0.004     0.004     0.000     0.002    59.969     0.110     0.000 .00000E+00 0.000E+00 0.000E+00 0.000E+00 0.000E+00 0.000E+00
BIGSUB   2        0    8.13482E+00   109.700     0.000   110.979    62.999    83.684     0.210     3.984     0.615    64.950     0.028     0.016     0.002     0.002     0.000     0.001    60.222     0.100     0.000 .00000E+00 0.000E+00 0.000E+00 0.000E+00 0.000E+00 0.000E+00
BIGSUB   3        0    8.12733E+00   109.700     0.000   110.960    63.584    90.558     0.414     3.508     1.330    65.079     0.022     0.017     0.002     0.001     0.000     0.002    60.054     0.101     0.000 .00000E+00 0.000E+00 0.000E+00 0.000E+00 0.000E+00 0.000E+00
BIGSUB   4        0    8.18951E+00   109.700     0.000   110.911    61.098    67.912     0.074     5.782     0.196    65.393     0.043     0.013     0.002     0.003     0.000     0.001    59.356     0.106     0.000 .00000E+00 0.000E+00 0.000E+00 0.000E+00 0.000E+00 0.000E+00
BIGSUB   5        0    8.25558E+00   109.700     0.000   110.959    63.671    82.439     0.094     6.233     0.160    63.089     0.053     0.036     0.004     0.002     0.000     0.003    56.587     0.084     0.000 .00000E+00 0.000E+00 0.000E+00 0.000E+00 0.000E+00 0.000E+00
BIGSUB   6        0    8.15319E+00   109.700     0.000   110.987    64.403   100.326     1.164     3.256     3.257    65.371     0.019     0.017     0.002     0.001     0.000     0.002    58.513     0.098     0.000 .00000E+00 0.000E+00 0.000E+00 0.000E+00 0.000E+00 0.000E+00
BIGSUB   7        0    8.13143E+00   109.700     0.000   110.989    63.055    93.266     1.075     5.234     2.272    65.311     0.083     0.071     0.012     0.012     0.001     0.006    57.563     0.147     0.000 .00000E+00 0.000E+00 0.000E+00 0.000E+00 0.000E+00 0.000E+00
BIGSUB   8        0    8.90085E-01   109.700     0.000   111.025    67.849   141.168     1.664     4.965     5.247    64.243     0.157     0.064     0.009     0.007     0.000     0.005    53.473     0.122     0.000 .00000E+00 0.000E+00 0.000E+00 0.000E+00 0.000E+00 0.000E+00
BIGSUB   9        0    8.37142E-01   109.700     0.000   111.034    68.531   112.624     2.933     5.624     7.726    63.303     0.010     0.017     0.002     0.001     0.001     0.002    49.257     0.085     0.000 .00000E+00 0.000E+00 0.000E+00 0.000E+00 0.000E+00 0.000E+00
BIGSUB   1        0    9.24419E+00   246.100     0.000   114.731    68.665    96.108     3.881    40.092     0.746   169.117     0.759     0.509     0.064     0.006     0.002     0.048   128.134     0.343     0.000 .00000E+00 0.000E+00 0.000E+00 0.000E+00 0.000E+00 0.000E+00
BIGSUB   2        0    9.13482E+00   246.100     0.000   114.723    68.147    89.468     2.671    41.620     0.500   169.943     0.684     0.457     0.055     0.004     0.001     0.043   127.718     0.321     0.000 .00000E+00 0.000E+00 0.000E+00 0.000E+00 0.000E+00 0.000E+00
BIGSUB   3        0    9.12733E+00   246.100     0.000   114.697    68.702    95.724     4.112    39.621     0.793   168.912     0.548     0.535     0.065     0.003     0.001     0.050   128.343     0.318     0.000 .00000E+00 0.000E+00 0.000E+00 0.000E+00 0.000E+00 0.000E+00
BIGSUB   4        0    9.18951E+00   246.100     0.000   114.628    66.372    74.676     0.986    48.846     0.171   172.030     0.678     0.268     0.033     0.006     0.001     0.025   122.966     0.322     0.000 .00000E+00 0.000E+00 0.000E+00 0.000E+00 0.000E+00 0.000E+00
BIGSUB   5        0    9.25558E+00   246.100     0.000   114.695    69.202    90.167     1.059    50.413     0.158   168.199     0.689     0.708     0.087     0.004     0.001     0.067   117.547     0.268     0.000 .00000E+00 0.000E+00 0.000E+00 0.000E+00 0.000E+00 0.000E+00
BIGSUB   6        0    9.15319E+00   246.100     0.000   114.735    69.597   104.458     7.935    38.219     2.220   166.804     0.488     0.539     0.066     0.003     0.002     0.050   126.072     0.305     0.000 .00000E+00 0.000E+00 0.000E+00 0.000E+00 0.000E+00 0.000E+00
BIGSUB   7        0    9.13143E+00   246.100     0.000   114.738    68.403    98.021     5.834    44.918     2.160   169.331     0.862     0.693     0.101     0.015     0.007     0.071   122.043     0.409     0.000 .00000E+00 0.000E+00 0.000E+00 0.000E+00 0.000E+00 0.000E+00
BIGSUB   8        0    9.90085E-01   246.100     0.000   114.788    72.833   141.623    13.762    38.974     3.294   162.697     0.679     0.750     0.096     0.011     0.003     0.071   119.951     0.359     0.000 .00000E+00 0.000E+00 0.000E+00 0.000E+00 0.000E+00 0.000E+00
BIGSUB   9        0    9.37142E-01   246.100     0.000   114.801    72.824   114.350    16.385    47.030     5.692   161.349     0.255     0.520     0.064     0.003     0.005     0.048   108.026     0.256     0.001 .00000E+00 0.000E+00 0.000E+00 0.000E+00 0.000E+00 0.000E+00
BIGSUB   1        0   10.24419E+00   389.400     0.000   114.005    76.843   109.997     5.876   119.488     2.564   283.220     6.019     2.911     0.359     0.014     0.004     0.282   161.016     0.303     0.000 .00000E+00 0.000E+00 0.000E+00 0.000E+00 0.000E+00 0.000E+00
BIGSUB   2        0   10.13482E+00   389.400     0.000   114.032    76.322   103.884     4.070   124.023     1.738   284.512     5.641     2.751     0.335     0.011     0.003     0.262   158.642     0.285     0.000 .00000E+00 0.000E+00 0.000E+00 0.000E+00 0.000E+00 0.000E+00
BIGSUB   3        0   10.12733E+00   389.400     0.000   114.124    76.938   109.667     6.208   118.639     2.712   282.876     4.501     3.394     0.413     0.010     0.003     0.320   161.362     0.289     0.000 .00000E+00 0.000E+00 0.000E+00 0.000E+00 0.000E+00 0.000E+00
BIGSUB   4        0   10.18951E+00   389.400     0.000   114.364    74.793    89.183     1.474   141.022     0.634   288.767     5.474     1.748     0.213     0.015     0.004     0.167   147.065     0.267     0.000 .00000E+00 0.000E+00 0.000E+00 0.000E+00 0.000E+00 0.000E+00
BIGSUB   5        0   10.25558E+00   389.400     0.000   114.129    77.813    99.197     4.292   143.456     0.237   287.631     5.121     4.162     0.512     0.009     0.004     0.396   143.862     0.269     0.000 .00000E+00 0.000E+00 0.000E+00 0.000E+00 0.000E+00 0.000E+00
BIGSUB   6        0   10.15319E+00   389.400     0.000   113.993    77.562   117.502    11.940   113.851     5.523   280.228     3.992     3.465     0.423     0.009     0.004     0.325   160.540     0.286     0.001 .00000E+00 0.000E+00 0.000E+00 0.000E+00 0.000E+00 0.000E+00
BIGSUB   7        0   10.13143E+00   389.400     0.000   113.980    76.403   111.197     7.720   128.596     3.916   284.559     5.818     3.261     0.438     0.031     0.013     0.348   151.824     0.344     0.001 .00000E+00 0.000E+00 0.000E+00 0.000E+00 0.000E+00 0.000E+00
BIGSUB   8        0   10.90085E-01   389.400     0.000   113.805    79.676   151.534    20.788   104.678     9.264   275.278     3.283     4.235     0.527     0.020     0.008     0.406   160.820     0.344     0.001 .00000E+00 0.000E+00 0.000E+00 0.000E+00 0.000E+00 0.000E+00
BIGSUB   9        0   10.37142E-01   389.400     0.000   113.760    80.209   125.924    23.980   121.514    11.538   274.505     2.053     3.490     0.426     0.008     0.010     0.321   140.810     0.261     0.002 .00000E+00 0.000E+00 0.000E+00 0.000E+00 0.000E+00 0.000E+00
BIGSUB   1        0   11.24419E+00   232.500     0.000   112.614    65.883   101.551     5.501    42.928     3.647   185.875     1.093     0.620     0.076     0.004     0.001     0.062   139.138     0.250     0.001 .00000E+00 0.000E+00 0.000E+00 0.000E+00 0.000E+00 0.000E+00
BIGSUB   2        0   11.13482E+00   232.500     0.000   112.628    65.438    96.116     4.091    45.782     2.533   185.536     1.044     0.640     0.078     0.003     0.001     0.062   137.105     0.239     0.000 .00000E+00 0.000E+00 0.000E+00 0.000E+00 0.000E+00 0.000E+00
BIGSUB   3        0   11.12733E+00   232.500     0.000   112.675    65.943   101.262     5.753    42.450     3.863   185.771     0.816     0.775     0.094     0.003     0.001     0.074   139.284     0.239     0.001 .00000E+00 0.000E+00 0.000E+00 0.000E+00 0.000E+00 0.000E+00
BIGSUB   4        0   11.18951E+00   232.500     0.000   112.798    64.065    83.464     1.569    55.946     0.916   184.314     1.098     0.492     0.060     0.005     0.001     0.048   127.406     0.223     0.000 .00000E+00 0.000E+00 0.000E+00 0.000E+00 0.000E+00 0.000E+00
BIGSUB   5        0   11.25558E+00   232.500     0.000   112.678    65.587    87.674     5.243    51.760     0.763   185.205     0.893     1.026     0.126     0.003     0.001     0.098   132.592     0.263     0.000 .00000E+00 0.000E+00 0.000E+00 0.000E+00 0.000E+00 0.000E+00
BIGSUB   6        0   11.15319E+00   232.500     0.000   112.607    66.307   108.376    10.090    39.315     7.529   185.754     0.713     0.743     0.091     0.003     0.001     0.071   138.577     0.236     0.001 .00000E+00 0.000E+00 0.000E+00 0.000E+00 0.000E+00 0.000E+00
BIGSUB   7        0   11.13143E+00   232.500     0.000   112.601    65.362   102.893     7.320    47.901     5.231   185.488     1.027     0.688     0.090     0.010     0.004     0.077   132.121     0.280     0.002 .00000E+00 0.000E+00 0.000E+00 0.000E+00 0.000E+00 0.000E+00
BIGSUB   8        0   11.90085E-01   232.500     0.000   112.511    67.362   139.492    17.766    33.388    13.096   186.772     0.517     0.715     0.089     0.006     0.002     0.071   139.729     0.281     0.002 .00000E+00 0.000E+00 0.000E+00 0.000E+00 0.000E+00 0.000E+00
BIGSUB   9        0   11.37142E-01   232.500     0.000   112.487    67.843   115.043    19.474    45.471    15.338   183.557     0.352     0.729     0.089     0.002     0.004     0.068   122.065     0.215     0.003 .00000E+00 0.000E+00 0.000E+00 0.000E+00 0.000E+00 0.000E+00
BIGSUB   1        0   12.24419E+00   313.600     0.000   109.951    83.880   110.493     6.182    48.482     4.666   218.379     5.616     1.733     0.212     0.003     0.001     0.172   165.033     0.258     0.001 .00000E+00 0.000E+00 0.000E+00 0.000E+00 0.000E+00 0.000E+00
BIGSUB   2        0   12.13482E+00   313.600     0.000   109.972    83.648   105.147     4.715    51.541     3.288   218.550     5.416     1.775     0.216     0.003     0.001     0.172   163.579     0.250     0.001 .00000E+00 0.000E+00 0.000E+00 0.000E+00 0.000E+00 0.000E+00
BIGSUB   3        0   12.12733E+00   313.600     0.000   110.042    83.985   110.177     6.511    47.954     4.931   218.246     4.261     2.157     0.263     0.002     0.001     0.206   165.152     0.251     0.001 .00000E+00 0.000E+00 0.000E+00 0.000E+00 0.000E+00 0.000E+00
BIGSUB   4        0   12.18951E+00   313.600     0.000   110.224    82.646    94.068     1.871    63.808     1.183   218.676     5.796     1.505     0.184     0.005     0.001     0.146   153.629     0.224     0.000 .00000E+00 0.000E+00 0.000E+00 0.000E+00 0.000E+00 0.000E+00
BIGSUB   5        0   12.25558E+00   313.600     0.000   110.046    83.621    96.707     4.797    55.931     1.174   216.379     4.191     2.469     0.303     0.003     0.001     0.237   159.144     0.252     0.000 .00000E+00 0.000E+00 0.000E+00 0.000E+00 0.000E+00 0.000E+00
BIGSUB   6        0   12.15319E+00   313.600     0.000   109.942    84.143   117.433    11.382    44.841     9.456   217.809     3.756     2.226     0.271     0.002     0.001     0.211   163.116     0.248     0.002 .00000E+00 0.000E+00 0.000E+00 0.000E+00 0.000E+00 0.000E+00
BIGSUB   7        0   12.13143E+00   313.600     0.000   109.932    83.420   112.362     8.737    54.255     6.688   217.826     5.030     1.853     0.237     0.008     0.003     0.203   156.602     0.274     0.003 .00000E+00 0.000E+00 0.000E+00 0.000E+00 0.000E+00 0.000E+00
BIGSUB   8        0   12.90085E-01   313.600     0.000   109.799    84.736   149.041    19.048    40.585    16.914   216.824     2.126     2.447     0.301     0.006     0.002     0.237   158.649     0.274     0.003 .00000E+00 0.000E+00 0.000E+00 0.000E+00 0.000E+00 0.000E+00
BIGSUB   9        0   12.37142E-01   313.600     0.000   109.764    85.772   124.209    22.465    53.457    19.181   215.234     1.881     2.451     0.299     0.003     0.005     0.226   141.794     0.234     0.005 .00000E+00 0.000E+00 0.000E+00 0.000E+00 0.000E+00 0.000E+00
BIGSUB   1        0 2010.24419E+00  3309.100     0.000  1351.020   921.183   110.493    52.605   760.873    42.169  2394.361    63.898    60.785     7.437     0.254     0.030     5.945  1588.143     2.951     0.011 .00000E+00 0.000E+00 0.000E+00 0.000E+00 0.000E+00 0.000E+00
BIGSUB   2        0 2010.13482E+00  3309.100     0.000  1351.024   916.939   105.147    39.423   793.932    28.834  2397.736    61.545    60.593     7.401     0.033     0.029     5.926  1572.568     2.617     0.008 .00000E+00 0.000E+00 0.000E+00 0.000E+00 0.000E+00 0.000E+00
BIGSUB   3        0 2010.12733E+00  3309.100     0.000  1351.038   921.761   110.177    55.839   754.869    45.021  2393.570    48.555    60.742     7.419     0.029     0.030     5.906  1590.307     2.595     0.012 .00000E+00 0.000E+00 0.000E+00 0.000E+00 0.000E+00 0.000E+00
BIGSUB   4        0 2010.18951E+00  3309.100     0.000  1351.072   908.920    94.068    17.790   930.060    10.297  2408.735    71.781    63.268     7.730     0.052     0.031     6.193  1467.282     2.411     0.003 .00000E+00 0.000E+00 0.000E+00 0.000E+00 0.000E+00 0.000E+00
BIGSUB   5        0 2010.25558E+00  3309.100     0.000  1351.038   922.060    96.707    36.208   874.286    10.000  2376.477    45.532    62.409     7.633     0.030     0.031     6.083  1489.997     2.198     0.003 .00000E+00 0.000E+00 0.000E+00 0.000E+00 0.000E+00 0.000E+00
BIGSUB   6        0 2010.15319E+00  3309.100     0.000  1351.018   929.349   117.433   100.190   723.274    91.622  2390.744    43.208    59.372     7.253     0.031     0.034     5.742  1569.959     2.479     0.024 .00000E+00 0.000E+00 0.000E+00 0.000E+00 0.000E+00 0.000E+00
BIGSUB   7        0 2010.13143E+00  3309.100     0.000  1351.016   918.805   112.362    71.120   830.093    60.302  2397.420    59.288    61.030     7.573     1.254     0.057     6.041  1502.988     4.679     0.032 .00000E+00 0.000E+00 0.000E+00 0.000E+00 0.000E+00 0.000E+00
BIGSUB   8        0 2010.90085E-01  3309.101     0.000  1350.990   951.117   149.041   165.584   675.786   157.106  2373.016    27.590    57.278     7.026     0.536     0.048     5.469  1530.561     3.259     0.045 .00000E+00 0.000E+00 0.000E+00 0.000E+00 0.000E+00 0.000E+00
BIGSUB   9        0 2010.37142E-01  3309.101     0.000  1350.983   956.594   124.209   196.857   812.526   189.783  2371.349    21.877    49.228     6.015     0.043     0.080     4.668  1357.808     2.200     0.051 .00000E+00 0.000E+00 0.000E+00 0.000E+00 0.000E+00 0.000E+00
BIGSUB   1        0    1.24419E+00   653.300     0.000   121.130    98.128   108.985    21.696   187.641     6.034   541.373    35.923    39.514     4.827     0.003     0.010     3.893   347.445     0.589     0.001 .00000E+00 0.000E+00 0.000E+00 0.000E+00 0.000E+00 0.000E+00
BIGSUB   2        0    1.13482E+00   653.300     0.000   121.124    97.993   103.722    17.679   197.449     4.260   543.603    34.933    39.528     4.827     0.003     0.010     3.894   341.707     0.585     0.001 .00000E+00 0.000E+00 0.000E+00 0.000E+00 0.000E+00 0.000E+00
BIGSUB   3        0    1.12733E+00   653.300     0.000   121.107    98.152   108.573    22.820   186.277     6.348   540.649    27.514    37.075     4.527     0.003     0.010     3.634   347.757     0.576     0.001 .00000E+00 0.000E+00 0.000E+00 0.000E+00 0.000E+00 0.000E+00
BIGSUB   4        0    1.18951E+00   653.300     0.000   121.062    97.482    94.694     9.594   237.044     1.541   547.330    40.701    42.590     5.205     0.005     0.012     4.199   308.669     0.523     0.000 .00000E+00 0.000E+00 0.000E+00 0.000E+00 0.000E+00 0.000E+00
BIGSUB   5        0    1.25558E+00   653.300     0.000   121.106    97.937    95.578    18.091   210.554     1.589   540.284    25.998    37.752     4.618     0.003     0.011     3.711   327.957     0.550     0.000 .00000E+00 0.000E+00 0.000E+00 0.000E+00 0.000E+00 0.000E+00
BIGSUB   6        0    1.15319E+00   653.300     0.000   121.132    98.333   115.936    34.679   176.567    12.000   534.357    24.452    35.368     4.320     0.002     0.011     3.449   345.311     0.553     0.003 .00000E+00 0.000E+00 0.000E+00 0.000E+00 0.000E+00 0.000E+00
BIGSUB   7        0    1.13143E+00   653.300     0.000   121.134    97.893   111.323    26.062   203.823     8.740   539.582    31.965    37.894     4.656     0.007     0.014     3.750   326.672     0.602     0.005 .00000E+00 0.000E+00 0.000E+00 0.000E+00 0.000E+00 0.000E+00
BIGSUB   8        0    1.90085E-01   653.300     0.000   121.167    98.857   148.017    54.849   155.044    21.808   523.326    12.916    29.485     3.605     0.005     0.013     2.823   345.663     0.563     0.007 .00000E+00 0.000E+00 0.000E+00 0.000E+00 0.000E+00 0.000E+00
BIGSUB   9        0    1.37142E-01   653.300     0.000   121.176   100.115   122.992    60.018   192.266    24.304   519.712    12.375    27.357     3.342     0.004     0.021     2.613   302.195     0.480     0.008 .00000E+00 0.000E+00 0.000E+00 0.000E+00 0.000E+00 0.000E+00
BIGSUB   1        0    2.24419E+00   340.100     0.000   130.758   102.751    82.212     8.674    83.851     8.374   265.155     3.982     2.216     0.271     0.045     0.002     0.219   172.592     0.399     0.003 .00000E+00 0.000E+00 0.000E+00 0.000E+00 0.000E+00 0.000E+00
BIGSUB   2        0    2.13482E+00   340.100     0.000   130.740   102.258    77.341     6.849    88.477     5.875   264.508     3.886     2.360     0.288     0.001     0.002     0.233   169.896     0.120     0.002 .00000E+00 0.000E+00 0.000E+00 0.000E+00 0.000E+00 0.000E+00
BIGSUB   3        0    2.12733E+00   340.100     0.000   130.678   102.943    81.617     9.133    83.124     8.738   265.071     3.007     2.465     0.301     0.001     0.002     0.242   172.854     0.120     0.003 .00000E+00 0.000E+00 0.000E+00 0.000E+00 0.000E+00 0.000E+00
BIGSUB   4        0    2.18951E+00   340.100     0.000   130.518    98.063    71.902     3.536   107.906     2.148   264.506     5.143     2.703     0.330     0.001     0.002     0.267   154.332     0.100     0.001 .00000E+00 0.000E+00 0.000E+00 0.000E+00 0.000E+00 0.000E+00
BIGSUB   5        0    2.25558E+00   340.100     0.000   130.675   101.954    69.506     6.933    94.800     2.222   260.745     2.946     2.806     0.343     0.001     0.002     0.276   163.463     0.119     0.001 .00000E+00 0.000E+00 0.000E+00 0.000E+00 0.000E+00 0.000E+00
BIGSUB   6        0    2.15319E+00   340.100     0.000   130.766   103.214    88.891    14.736    78.584    16.191   266.970     2.656     2.399     0.293     0.001     0.002     0.234   171.596     0.120     0.006 .00000E+00 0.000E+00 0.000E+00 0.000E+00 0.000E+00 0.000E+00
BIGSUB   7        0    2.13143E+00   340.100     0.000   130.775   100.276    86.706    10.983    91.826    11.605   266.528     3.796     2.541     0.314     0.152     0.002     0.255   162.657     1.900     0.009 .00000E+00 0.000E+00 0.000E+00 0.000E+00 0.000E+00 0.000E+00
BIGSUB   8        0    2.90085E-01   340.100     0.000   130.892   103.108   121.375    23.930    69.280    29.640   271.291     1.461     2.402     0.294     0.133     0.003     0.231   171.381     0.774     0.012 .00000E+00 0.000E+00 0.000E+00 0.000E+00 0.000E+00 0.000E+00
BIGSUB   9        0    2.37142E-01   340.100     0.000   130.922   103.640    96.861    26.835    86.397    32.197   269.966     1.316     2.121     0.259     0.001     0.007     0.202   150.242     0.136     0.013 .00000E+00 0.000E+00 0.000E+00 0.000E+00 0.000E+00 0.000E+00
BIGSUB   1        0    3.24419E+00   146.500     0.000   174.024   119.164    49.382     0.000     0.272     6.410    60.068     0.009     0.005     0.001     0.000     0.000     0.001    52.970     0.000     0.001 .00000E+00 0.000E+00 0.000E+00 0.000E+00 0.000E+00 0.000E+00
BIGSUB   2        0    3.13482E+00   146.500     0.000   174.000   118.673    43.636     0.000     0.372     4.172    58.972     0.000     0.000     0.000     0.000     0.000     0.000    54.104     0.002     0.001 .00000E+00 0.000E+00 0.000E+00 0.000E+00 0.000E+00 0.000E+00
BIGSUB   3        0    3.12733E+00   146.500     0.000   173.921   119.302    48.904     0.000     0.037     6.993    60.394     0.000     0.000     0.000     0.000     0.000     0.000    52.926     0.000     0.001 .00000E+00 0.000E+00 0.000E+00 0.000E+00 0.000E+00 0.000E+00
BIGSUB   4        0    3.18951E+00   146.500     0.000   173.713   117.256    37.087     0.000     2.471     1.490    58.736     0.013     0.002     0.000     0.000     0.000     0.000    54.616     0.000     0.000 .00000E+00 0.000E+00 0.000E+00 0.000E+00 0.000E+00 0.000E+00
BIGSUB   5        0    3.25558E+00   146.500     0.000   173.917   119.525    36.726     0.000     0.570     1.538    54.666     0.014     0.000     0.000     0.000     0.000     0.000    52.230     0.002     0.000 .00000E+00 0.000E+00 0.000E+00 0.000E+00 0.000E+00 0.000E+00
BIGSUB   6        0    3.15319E+00   146.500     0.000   174.035   120.524    58.208     0.001     0.106    14.331    65.110     0.000     0.000     0.000     0.000     0.000     0.000    49.952     0.000     0.003 .00000E+00 0.000E+00 0.000E+00 0.000E+00 0.000E+00 0.000E+00
BIGSUB   7        0    3.13143E+00   146.500     0.000   174.046   118.788    54.765     0.000     2.174     8.776    62.372     0.041     0.036     0.005     0.000     0.000     0.004    50.889     0.007     0.007 .00000E+00 0.000E+00 0.000E+00 0.000E+00 0.000E+00 0.000E+00
BIGSUB   8        0    3.90085E-01   146.500     0.000   174.198   120.996    95.480     0.000     3.974    24.505    71.601     0.120     0.084     0.010     0.001     0.000     0.008    41.940     0.007     0.006 .00000E+00 0.000E+00 0.000E+00 0.000E+00 0.000E+00 0.000E+00
BIGSUB   9        0    3.37142E-01   146.500     0.000   174.237   120.981    74.000     0.015     3.765    28.942    73.391     0.000     0.000     0.000     0.000     0.001     0.000    39.348     0.030     0.007 .00000E+00 0.000E+00 0.000E+00 0.000E+00 0.000E+00 0.000E+00
BIGSUB   1        0    4.24419E+00   101.900     0.000   126.388    67.043    36.234     0.019     0.456     1.131    56.044     0.004     0.004     0.001     0.000     0.000     0.000    54.105     0.001     0.000 .00000E+00 0.000E+00 0.000E+00 0.000E+00 0.000E+00 0.000E+00
BIGSUB   2        0    4.13482E+00   101.900     0.000   126.381    65.811    30.789     0.013     0.569     0.876    56.774     0.000     0.000     0.000     0.000     0.000     0.000    55.053     0.002     0.000 .00000E+00 0.000E+00 0.000E+00 0.000E+00 0.000E+00 0.000E+00
BIGSUB   3        0    4.12733E+00   101.900     0.000   126.359    66.742    36.270     0.000     0.320     1.180    55.943     0.000     0.000     0.000     0.000     0.000     0.000    54.072     0.002     0.000 .00000E+00 0.000E+00 0.000E+00 0.000E+00 0.000E+00 0.000E+00
BIGSUB   4        0    4.18951E+00   101.900     0.000   126.301    66.661    21.868     0.000     2.029     0.265    57.465     0.007     0.002     0.000     0.000     0.000     0.000    55.035     0.001     0.000 .00000E+00 0.000E+00 0.000E+00 0.000E+00 0.000E+00 0.000E+00
BIGSUB   5        0    4.25558E+00   101.900     0.000   126.358    67.103    24.002     0.054     0.846     0.363    54.724     0.008     0.000     0.000     0.000     0.000     0.000    53.236     0.002     0.000 .00000E+00 0.000E+00 0.000E+00 0.000E+00 0.000E+00 0.000E+00
BIGSUB   6        0    4.15319E+00   101.900     0.000   126.391    69.209    45.443     0.061     0.357     2.739    55.017     0.000     0.000     0.000     0.000     0.000     0.000    51.313     0.001     0.000 .00000E+00 0.000E+00 0.000E+00 0.000E+00 0.000E+00 0.000E+00
BIGSUB   7        0    4.13143E+00   101.900     0.000   126.394    70.387    38.760     0.000     1.862     2.265    56.464     0.023     0.039     0.005     0.000     0.000     0.004    51.887     0.121     0.001 .00000E+00 0.000E+00 0.000E+00 0.000E+00 0.000E+00 0.000E+00
BIGSUB   8        0    4.90085E-01   101.900     0.000   126.437    77.578    77.897     0.117     3.038     5.227    53.208     0.066     0.077     0.009     0.001     0.000     0.008    43.950     0.002     0.001 .00000E+00 0.000E+00 0.000E+00 0.000E+00 0.000E+00 0.000E+00
BIGSUB   9        0    4.37142E-01   101.900     0.000   126.448    73.914    62.450     0.024     3.874     7.987    53.609     0.000     0.000     0.000     0.000     0.001     0.000    40.629     0.002     0.001 .00000E+00 0.000E+00 0.000E+00 0.000E+00 0.000E+00 0.000E+00
BIGSUB   1        0    5.24419E+00    93.900     0.000   112.485    49.775    40.970     0.014     0.007     0.138    39.932     0.000     0.000     0.000     0.002     0.000     0.000    39.496     0.063     0.000 .00000E+00 0.000E+00 0.000E+00 0.000E+00 0.000E+00 0.000E+00
BIGSUB   2        0    5.13482E+00    93.900     0.000   112.477    49.976    34.787     0.008     0.010     0.102    40.380     0.000     0.000     0.000     0.000     0.000     0.000    40.040     0.037     0.000 .00000E+00 0.000E+00 0.000E+00 0.000E+00 0.000E+00 0.000E+00
BIGSUB   3        0    5.12733E+00    93.900     0.000   112.450    49.617    41.209     0.000     0.000     0.155    39.931     0.000     0.000     0.000     0.000     0.000     0.000    39.470     0.039     0.000 .00000E+00 0.000E+00 0.000E+00 0.000E+00 0.000E+00 0.000E+00
BIGSUB   4        0    5.18951E+00    93.900     0.000   112.379    54.208    22.159     0.000     0.025     0.024    39.672     0.008     0.000     0.000     0.000     0.000     0.000    39.509     0.020     0.000 .00000E+00 0.000E+00 0.000E+00 0.000E+00 0.000E+00 0.000E+00
BIGSUB   5        0    5.25558E+00    93.900     0.000   112.448    50.186    28.686     0.038     0.039     0.062    39.410     0.010     0.000     0.000     0.000     0.000     0.000    39.077     0.034     0.000 .00000E+00 0.000E+00 0.000E+00 0.000E+00 0.000E+00 0.000E+00
BIGSUB   6        0    5.15319E+00    93.900     0.000   112.488    50.810    51.007     0.036     0.007     0.532    38.640     0.000     0.000     0.000     0.000     0.000     0.000    37.602     0.035     0.000 .00000E+00 0.000E+00 0.000E+00 0.000E+00 0.000E+00 0.000E+00
BIGSUB   7        0    5.13143E+00    93.900     0.000   112.492    52.933    41.923     0.000     0.295     0.374    38.680     0.012     0.007     0.001     0.000     0.000     0.001    37.641     0.041     0.000 .00000E+00 0.000E+00 0.000E+00 0.000E+00 0.000E+00 0.000E+00
BIGSUB   8        0    5.90085E-01    93.900     0.000   112.543    54.433    83.187     0.067     1.879     0.865    35.893     0.082     0.042     0.005     0.005     0.000     0.004    32.334     0.090     0.000 .00000E+00 0.000E+00 0.000E+00 0.000E+00 0.000E+00 0.000E+00
BIGSUB   9        0    5.37142E-01    93.900     0.000   112.557    55.297    68.977     0.035     1.926     1.387    34.443     0.000     0.000     0.000     0.000     0.000     0.000    30.213     0.030     0.000 .00000E+00 0.000E+00 0.000E+00 0.000E+00 0.000E+00 0.000E+00
BIGSUB   1        0    6.24419E+00   178.300     0.000   107.828    57.609    56.916     0.062     8.562     0.032   105.140     0.013     0.012     0.001     0.001     0.000     0.001    96.332     0.157     0.000 .00000E+00 0.000E+00 0.000E+00 0.000E+00 0.000E+00 0.000E+00
BIGSUB   2        0    6.13482E+00   178.300     0.000   107.806    57.553    49.859     0.074     8.837     0.036   106.022     0.004     0.005     0.001     0.001     0.000     0.000    96.980     0.149     0.000 .00000E+00 0.000E+00 0.000E+00 0.000E+00 0.000E+00 0.000E+00
BIGSUB   3        0    6.12733E+00   178.300     0.000   107.731    57.809    57.186     0.000     8.306     0.000   104.950     0.003     0.005     0.001     0.001     0.000     0.000    96.417     0.156     0.000 .00000E+00 0.000E+00 0.000E+00 0.000E+00 0.000E+00 0.000E+00
BIGSUB   4        0    6.18951E+00   178.300     0.000   107.534    59.058    35.923     0.013    11.606     0.004   105.775     0.024     0.006     0.001     0.001     0.000     0.001    94.081     0.092     0.000 .00000E+00 0.000E+00 0.000E+00 0.000E+00 0.000E+00 0.000E+00
BIGSUB   5        0    6.25558E+00   178.300     0.000   107.727    57.982    43.540     0.175    10.781     0.089   105.757     0.028     0.007     0.001     0.001     0.000     0.001    94.714     0.140     0.000 .00000E+00 0.000E+00 0.000E+00 0.000E+00 0.000E+00 0.000E+00
BIGSUB   6        0    6.15319E+00   178.300     0.000   107.838    58.789    68.888     0.332     8.526     0.138   102.004     0.003     0.006     0.001     0.001     0.000     0.001    92.969     0.144     0.000 .00000E+00 0.000E+00 0.000E+00 0.000E+00 0.000E+00 0.000E+00
BIGSUB   7        0    6.13143E+00   178.300     0.000   107.849    56.854    59.699     0.350    12.032     0.081   103.891     0.068     0.089     0.012     0.001     0.000     0.009    91.505     0.129     0.000 .00000E+00 0.000E+00 0.000E+00 0.000E+00 0.000E+00 0.000E+00
BIGSUB   8        0    6.90085E-01   178.300     0.000   107.993    60.818   105.051     0.765    12.840     0.314    95.948     0.192     0.129     0.016     0.003     0.001     0.013    82.190     0.141     0.000 .00000E+00 0.000E+00 0.000E+00 0.000E+00 0.000E+00 0.000E+00
[...]
BIGSUB   1        0    9.24419E+00    48.700     0.000   150.186    41.539    41.916     0.007     0.105     0.008    22.656     0.001     0.002     0.000     0.002     0.000     0.000    22.454     0.062     0.000 .00000E+00 0.000E+00 0.000E+00 0.000E+00 0.000E+00 0.000E+00
BIGSUB   2        0    9.13482E+00    48.700     0.000   150.181    41.112    34.418     0.009     0.055     0.007    22.928     0.000     0.000     0.000     0.000     0.000     0.000    22.796     0.049     0.000 .00000E+00 0.000E+00 0.000E+00 0.000E+00 0.000E+00 0.000E+00
BIGSUB   3        0    9.12733E+00    48.700     0.000   150.168    41.611    42.221     0.000     0.037     0.000    22.577     0.000     0.000     0.000     0.000     0.000     0.000    22.447     0.052     0.000 .00000E+00 0.000E+00 0.000E+00 0.000E+00 0.000E+00 0.000E+00
BIGSUB   4        0    9.18951E+00    48.700     0.000   150.132    40.465    19.598     0.001     0.074     0.001    22.647     0.002     0.000     0.000     0.000     0.000     0.000    22.537     0.028     0.000 .00000E+00 0.000E+00 0.000E+00 0.000E+00 0.000E+00 0.000E+00
BIGSUB   5        0    9.25558E+00    48.700     0.000   150.167    40.796    29.729     0.020     0.216     0.023    22.507     0.003     0.001     0.000     0.000     0.000     0.000    22.195     0.046     0.000 .00000E+00 0.000E+00 0.000E+00 0.000E+00 0.000E+00 0.000E+00
BIGSUB   6        0    9.15319E+00    48.700     0.000   150.187    43.240    53.489     0.037     0.068     0.035    21.588     0.000     0.000     0.000     0.000     0.000     0.000    21.330     0.047     0.000 .00000E+00 0.000E+00 0.000E+00 0.000E+00 0.000E+00 0.000E+00
BIGSUB   7        0    9.13143E+00    48.700     0.000   150.189    42.035    44.126     0.007     0.860     0.000    22.459     0.007     0.011     0.002     0.007     0.001     0.001    21.483     0.100     0.000 .00000E+00 0.000E+00 0.000E+00 0.000E+00 0.000E+00 0.000E+00
BIGSUB   8        0    9.90085E-01    48.700     0.000   150.215    47.734    85.613     0.076     1.348     0.063    19.858     0.024     0.014     0.002     0.004     0.000     0.001    18.193     0.064     0.000 .00000E+00 0.000E+00 0.000E+00 0.000E+00 0.000E+00 0.000E+00
BIGSUB   9        0    9.37142E-01    48.700     0.000   150.222    47.514    74.602     0.035     0.896     0.000    18.133     0.000     0.002     0.000     0.001     0.000     0.000    16.955     0.039     0.000 .00000E+00 0.000E+00 0.000E+00 0.000E+00 0.000E+00 0.000E+00
BIGSUB   1        0   10.24419E+00   321.900     0.000   137.294    59.009    87.781     0.139    12.639     0.007   211.574     0.320     0.309     0.039     0.003     0.001     0.032   198.861     0.654     0.000 .00000E+00 0.000E+00 0.000E+00 0.000E+00 0.000E+00 0.000E+00
BIGSUB   2        0   10.13482E+00   321.900     0.000   137.287    58.244    78.728     0.255    13.179     0.009   213.710     0.277     0.254     0.031     0.001     0.000     0.025   200.469     0.560     0.000 .00000E+00 0.000E+00 0.000E+00 0.000E+00 0.000E+00 0.000E+00
BIGSUB   3        0   10.12733E+00   321.900     0.000   137.264    59.130    88.583     0.000    12.126     0.000   211.096     0.223     0.317     0.039     0.001     0.000     0.030   198.899     0.581     0.000 .00000E+00 0.000E+00 0.000E+00 0.000E+00 0.000E+00 0.000E+00
BIGSUB   4        0   10.18951E+00   321.900     0.000   137.202    56.218    63.926     0.052    20.040     0.001   216.023     0.264     0.115     0.014     0.002     0.001     0.012   195.955     0.338     0.000 .00000E+00 0.000E+00 0.000E+00 0.000E+00 0.000E+00 0.000E+00
BIGSUB   5        0   10.25558E+00   321.900     0.000   137.262    59.056    75.219     0.394    19.347     0.019   211.900     0.332     0.458     0.056     0.001     0.001     0.044   192.478     0.518     0.000 .00000E+00 0.000E+00 0.000E+00 0.000E+00 0.000E+00 0.000E+00
BIGSUB   6        0   10.15319E+00   321.900     0.000   137.297    60.469   100.841     3.443    12.733     0.037   205.428     0.203     0.346     0.043     0.001     0.001     0.033   192.539     0.553     0.000 .00000E+00 0.000E+00 0.000E+00 0.000E+00 0.000E+00 0.000E+00
BIGSUB   7        0   10.13143E+00   321.900     0.000   137.300    58.817    87.514     4.425    20.145     0.045   209.948     0.388     0.519     0.074     0.012     0.006     0.062   189.668     0.834     0.000 .00000E+00 0.000E+00 0.000E+00 0.000E+00 0.000E+00 0.000E+00
BIGSUB   8        0   10.90085E-01   321.900     0.000   137.345    62.540   145.911     2.083    20.047     0.076   192.312     0.456     0.544     0.069     0.009     0.002     0.057   171.994     0.665     0.000 .00000E+00 0.000E+00 0.000E+00 0.000E+00 0.000E+00 0.000E+00
BIGSUB   9        0   10.37142E-01   321.900     0.000   137.357    64.455   117.452    14.957    33.882     0.022   195.148     0.119     0.432     0.053     0.001     0.004     0.040   161.025     0.492     0.000 .00000E+00 0.000E+00 0.000E+00 0.000E+00 0.000E+00 0.000E+00
BIGSUB   1        0   11.24419E+00   404.000     0.000   105.033    74.975    99.368     7.505    86.519     0.074   315.322     4.610     2.696     0.333     0.004     0.003     0.268   228.670     0.315     0.000 .00000E+00 0.000E+00 0.000E+00 0.000E+00 0.000E+00 0.000E+00
BIGSUB   2        0   11.13482E+00   404.000     0.000   105.051    74.104    92.944     4.408    89.417     0.156   316.785     4.305     2.467     0.304     0.003     0.003     0.240   227.168     0.279     0.000 .00000E+00 0.000E+00 0.000E+00 0.000E+00 0.000E+00 0.000E+00
BIGSUB   3        0   11.12733E+00   404.000     0.000   105.111    75.070    99.069     8.582    85.836     0.000   315.176     3.475     3.024     0.371     0.002     0.002     0.290   229.277     0.298     0.000 .00000E+00 0.000E+00 0.000E+00 0.000E+00 0.000E+00 0.000E+00
BIGSUB   4        0   11.18951E+00   404.000     0.000   105.268    70.913    78.464     1.582   105.732     0.027   322.216     3.516     1.042     0.132     0.014     0.007     0.105   216.436     0.238     0.000 .00000E+00 0.000E+00 0.000E+00 0.000E+00 0.000E+00 0.000E+00
BIGSUB   5        0   11.25558E+00   404.000     0.000   105.114    74.784    93.502     1.116   108.280     0.208   315.087     3.667     3.295     0.406     0.004     0.003     0.318   206.555     0.231     0.000 .00000E+00 0.000E+00 0.000E+00 0.000E+00 0.000E+00 0.000E+00
BIGSUB   6        0   11.15319E+00   404.000     0.000   105.025    75.529   107.659    17.141    83.216     0.725   310.588     3.080     3.031     0.372     0.002     0.003     0.289   226.516     0.310     0.000 .00000E+00 0.000E+00 0.000E+00 0.000E+00 0.000E+00 0.000E+00
BIGSUB   7        0   11.13143E+00   404.000     0.000   105.017    73.948   101.372     8.852    96.229     2.204   314.918     4.102     2.754     0.355     0.017     0.011     0.302   216.382     0.363     0.002 .00000E+00 0.000E+00 0.000E+00 0.000E+00 0.000E+00 0.000E+00
BIGSUB   8        0   11.90085E-01   404.000     0.000   104.902    77.153   144.604    30.249    84.320     1.217   304.049     2.228     3.605     0.445     0.008     0.006     0.352   218.311     0.416     0.001 .00000E+00 0.000E+00 0.000E+00 0.000E+00 0.000E+00 0.000E+00
BIGSUB   9        0   11.37142E-01   404.000     0.000   104.872    77.877   117.715    33.661   101.600     5.234   302.287     1.585     2.873     0.352     0.002     0.009     0.268   195.156     0.304     0.002 .00000E+00 0.000E+00 0.000E+00 0.000E+00 0.000E+00 0.000E+00
BIGSUB   1        0   12.24419E+00   246.500     0.000   132.274    73.188   103.040     3.624    36.383     1.053   167.248     2.736     1.198     0.148     0.003     0.001     0.121   129.707     0.140     0.000 .00000E+00 0.000E+00 0.000E+00 0.000E+00 0.000E+00 0.000E+00
BIGSUB   2        0   12.13482E+00   246.500     0.000   132.288    72.425    96.983     2.550    38.703     0.368   168.004     2.585     1.146     0.141     0.003     0.002     0.113   128.863     0.135     0.000 .00000E+00 0.000E+00 0.000E+00 0.000E+00 0.000E+00 0.000E+00
BIGSUB   3        0   12.12733E+00   246.500     0.000   132.335    73.243   102.726     3.851    35.898     1.628   167.565     2.058     1.397     0.172     0.001     0.001     0.135   129.924     0.135     0.000 .00000E+00 0.000E+00 0.000E+00 0.000E+00 0.000E+00 0.000E+00
BIGSUB   4        0   12.18951E+00   246.500     0.000   132.457    69.492    83.444     0.902    48.415     0.047   171.284     2.124     0.477     0.061     0.010     0.007     0.049   122.794     0.156     0.000 .00000E+00 0.000E+00 0.000E+00 0.000E+00 0.000E+00 0.000E+00
BIGSUB   5        0   12.25558E+00   246.500     0.000   132.337    73.422    94.162     2.929    48.426     0.350   169.961     2.229     1.667     0.205     0.003     0.002     0.161   121.134     0.151     0.000 .00000E+00 0.000E+00 0.000E+00 0.000E+00 0.000E+00 0.000E+00
BIGSUB   6        0   12.15319E+00   246.500     0.000   132.268    73.918   110.813     7.624    33.676     7.130   169.252     1.803     1.363     0.167     0.002     0.001     0.131   128.199     0.141     0.002 .00000E+00 0.000E+00 0.000E+00 0.000E+00 0.000E+00 0.000E+00
BIGSUB   7        0   12.13143E+00   246.500     0.000   132.261    72.673   104.839     5.377    41.836     4.026   169.252     2.372     1.217     0.157     0.010     0.005     0.137   123.222     0.172     0.003 .00000E+00 0.000E+00 0.000E+00 0.000E+00 0.000E+00 0.000E+00
BIGSUB   8        0   12.90085E-01   246.500     0.000   132.172    76.570   145.575    13.374    31.493     8.503   164.548     1.086     1.397     0.172     0.005     0.002     0.139   124.160     0.180     0.002 .00000E+00 0.000E+00 0.000E+00 0.000E+00 0.000E+00 0.000E+00
BIGSUB   9        0   12.37142E-01   246.500     0.000   132.149    76.903   119.895    15.906    40.908    18.755   170.873     0.902     1.309     0.160     0.003     0.004     0.122   110.658     0.148     0.006 .00000E+00 0.000E+00 0.000E+00 0.000E+00 0.000E+00 0.000E+00
BIGSUB   1        0 2011.24419E+00  2691.700     0.000  1573.633   838.369   103.040    41.755   416.495    23.302  1845.573    47.600    45.961     5.622     0.063     0.017     4.535  1403.298     2.490     0.006 .00000E+00 0.000E+00 0.000E+00 0.000E+00 0.000E+00 0.000E+00
BIGSUB   2        0 2011.13482E+00  2691.700     0.000  1573.518   832.882    96.983    31.858   437.088    15.911  1853.717    45.991    45.761     5.592     0.012     0.017     4.506  1398.804     1.997     0.004 .00000E+00 0.000E+00 0.000E+00 0.000E+00 0.000E+00 0.000E+00
BIGSUB   3        0 2011.12733E+00  2691.700     0.000  1573.133   838.970   102.726    44.385   411.961    25.041  1844.213    36.279    44.283     5.410     0.008     0.016     4.331  1404.599     2.041     0.006 .00000E+00 0.000E+00 0.000E+00 0.000E+00 0.000E+00 0.000E+00
BIGSUB   4        0 2011.18951E+00  2691.700     0.000  1572.124   825.673    83.444    15.685   535.387     5.556  1868.181    51.810    46.937     5.744     0.034     0.029     4.632  1326.323     1.545     0.002 .00000E+00 0.000E+00 0.000E+00 0.000E+00 0.000E+00 0.000E+00
BIGSUB   5        0 2011.25558E+00  2691.700     0.000  1573.112   838.037    94.162    29.793   493.938     6.580  1835.682    35.248    45.987     5.630     0.014     0.020     4.511  1333.251     1.869     0.002 .00000E+00 0.000E+00 0.000E+00 0.000E+00 0.000E+00 0.000E+00
BIGSUB   6        0 2011.15319E+00  2691.700     0.000  1573.684   852.253   110.813    78.156   393.857    54.084  1827.176    32.198    42.514     5.196     0.009     0.018     4.137  1374.799     1.982     0.015 .00000E+00 0.000E+00 0.000E+00 0.000E+00 0.000E+00 0.000E+00
BIGSUB   7        0 2011.13143E+00  2691.700     0.000  1573.737   841.104   104.839    56.245   472.045    38.237  1844.128    42.799    45.143     5.587     0.216     0.040     4.527  1330.580     4.469     0.027 .00000E+00 0.000E+00 0.000E+00 0.000E+00 0.000E+00 0.000E+00
BIGSUB   8        0 2011.90085E-01  2691.700     0.000  1574.473   885.242   145.575   125.625   385.828    92.723  1784.970    18.739    37.836     4.635     0.179     0.027     3.642  1299.157     3.033     0.029 .00000E+00 0.000E+00 0.000E+00 0.000E+00 0.000E+00 0.000E+00
BIGSUB   9        0 2011.37142E-01  2691.700     0.000  1574.661   889.932   119.895   152.138   485.939   119.342  1782.325    16.300    34.101     4.168     0.014     0.049     3.246  1168.643     1.854     0.037 .00000E+00 0.000E+00 0.000E+00 0.000E+00 0.000E+00 0.000E+00
BIGSUB   1        0    1.24419E+00    30.000     0.000     3.553     3.199   108.159     0.545     4.140     0.083    15.604     0.248     0.092     0.011     0.001     0.000     0.010    11.377     0.013     0.000 .00000E+00 0.000E+00 0.000E+00 0.000E+00 0.000E+00 0.000E+00
BIGSUB   2        0    1.13482E+00    30.000     0.000     3.556     3.184   102.092     0.383     4.534     0.016    15.789     0.236     0.093     0.011     0.001     0.000     0.009    11.237     0.013     0.000 .00000E+00 0.000E+00 0.000E+00 0.000E+00 0.000E+00 0.000E+00
BIGSUB   3        0    1.12733E+00    30.000     0.000     3.563     3.206   107.846     0.578     4.063     0.103    15.573     0.186     0.112     0.014     0.000     0.000     0.011    11.403     0.013     0.000 .00000E+00 0.000E+00 0.000E+00 0.000E+00 0.000E+00 0.000E+00
BIGSUB   4        0    1.18951E+00    30.000     0.000     3.581     3.095    88.406     0.137     6.173     0.003    16.647     0.197     0.038     0.005     0.002     0.001     0.004    10.470     0.014     0.000 .00000E+00 0.000E+00 0.000E+00 0.000E+00 0.000E+00 0.000E+00
BIGSUB   5        0    1.25558E+00    30.000     0.000     3.563     3.217    98.823     0.453     5.900     0.011    16.470     0.209     0.150     0.018     0.001     0.000     0.015    10.557     0.015     0.000 .00000E+00 0.000E+00 0.000E+00 0.000E+00 0.000E+00 0.000E+00
BIGSUB   6        0    1.15319E+00    30.000     0.000     3.553     3.203   115.908     1.119     3.681     0.272    15.274     0.161     0.101     0.012     0.000     0.000     0.010    11.312     0.014     0.000 .00000E+00 0.000E+00 0.000E+00 0.000E+00 0.000E+00 0.000E+00
BIGSUB   7        0    1.13143E+00    30.000     0.000     3.552     3.166   109.868     0.751     5.010     0.128    15.838     0.214     0.095     0.012     0.002     0.001     0.011    10.694     0.015     0.000 .00000E+00 0.000E+00 0.000E+00 0.000E+00 0.000E+00 0.000E+00
BIGSUB   8        0    1.90085E-01    30.000     0.000     3.538     3.212   150.534     1.942     3.180     0.406    14.762     0.087     0.080     0.010     0.001     0.000     0.008    11.161     0.017     0.000 .00000E+00 0.000E+00 0.000E+00 0.000E+00 0.000E+00 0.000E+00
BIGSUB   9        0    1.37142E-01    30.000     0.000     3.535     3.227   124.824     2.263     4.855     0.629    15.342     0.078     0.093     0.011     0.001     0.000     0.009     9.838     0.014     0.000 .00000E+00 0.000E+00 0.000E+00 0.000E+00 0.000E+00 0.000E+00
BIGSUB   1        0 2011.24419E+00    30.000     0.000     3.553     3.199   108.159     0.545     4.140     0.083    15.604     0.248     0.092     0.011     0.001     0.000     0.010    11.377     0.013     0.000 .00000E+00 0.000E+00 0.000E+00 0.000E+00 0.000E+00 0.000E+00
BIGSUB   2        0 2011.13482E+00    30.000     0.000     3.556     3.184   102.092     0.383     4.534     0.016    15.789     0.236     0.093     0.011     0.001     0.000     0.009    11.237     0.013     0.000 .00000E+00 0.000E+00 0.000E+00 0.000E+00 0.000E+00 0.000E+00
BIGSUB   3        0 2011.12733E+00    30.000     0.000     3.563     3.206   107.846     0.578     4.063     0.103    15.573     0.186     0.112     0.014     0.000     0.000     0.011    11.403     0.013     0.000 .00000E+00 0.000E+00 0.000E+00 0.000E+00 0.000E+00 0.000E+00
BIGSUB   4        0 2011.18951E+00    30.000     0.000     3.581     3.095    88.406     0.137     6.173     0.003    16.647     0.197     0.038     0.005     0.002     0.001     0.004    10.470     0.014     0.000 .00000E+00 0.000E+00 0.000E+00 0.000E+00 0.000E+00 0.000E+00
BIGSUB   5        0 2011.25558E+00    30.000     0.000     3.563     3.217    98.823     0.453     5.900     0.011    16.470     0.209     0.150     0.018     0.001     0.000     0.015    10.557     0.015     0.000 .00000E+00 0.000E+00 0.000E+00 0.000E+00 0.000E+00 0.000E+00
BIGSUB   6        0 2011.15319E+00    30.000     0.000     3.553     3.203   115.908     1.119     3.681     0.272    15.274     0.161     0.101     0.012     0.000     0.000     0.010    11.312     0.014     0.000 .00000E+00 0.000E+00 0.000E+00 0.000E+00 0.000E+00 0.000E+00
BIGSUB   7        0 2011.13143E+00    30.000     0.000     3.552     3.166   109.868     0.751     5.010     0.128    15.838     0.214     0.095     0.012     0.002     0.001     0.011    10.694     0.015     0.000 .00000E+00 0.000E+00 0.000E+00 0.000E+00 0.000E+00 0.000E+00
BIGSUB   8        0 2011.90085E-01    30.000     0.000     3.538     3.212   150.534     1.942     3.180     0.406    14.762     0.087     0.080     0.010     0.001     0.000     0.008    11.161     0.017     0.000 .00000E+00 0.000E+00 0.000E+00 0.000E+00 0.000E+00 0.000E+00
BIGSUB   9        0 2011.37142E-01    30.000     0.000     3.535     3.227   124.824     2.263     4.855     0.629    15.342     0.078     0.093     0.011     0.001     0.000     0.009     9.838     0.014     0.000 .00000E+00 0.000E+00 0.000E+00 0.000E+00 0.000E+00 0.000E+00
BIGSUB   1        0  3.0.24419E+00  3187.023     0.000  1511.420   901.018   108.159    49.839   678.599    31.594  2265.995    48.605    52.675     6.448     0.167     0.030     5.133  1553.249     2.822     0.007 .00000E+00 0.000E+00 0.000E+00 0.000E+00 0.000E+00 0.000E+00
BIGSUB   2        0  3.0.13482E+00  3187.023     0.000  1511.315   896.500   102.092    37.197   709.187    21.342  2272.528    46.691    52.107     6.364     0.045     0.029     5.069  1540.087     2.467     0.005 .00000E+00 0.000E+00 0.000E+00 0.000E+00 0.000E+00 0.000E+00
BIGSUB   3        0  3.0.12733E+00  3187.023     0.000  1510.962   901.509   107.846    52.951   673.042    34.063  2265.022    36.870    51.521     6.293     0.039     0.029     4.984  1555.209     2.482     0.008 .00000E+00 0.000E+00 0.000E+00 0.000E+00 0.000E+00 0.000E+00
BIGSUB   4        0  3.0.18951E+00  3187.022     0.000  1510.037   889.258    88.406    16.585   833.013     7.538  2286.737    52.885    52.704     6.440     0.076     0.034     5.133  1445.336     2.149     0.002 .00000E+00 0.000E+00 0.000E+00 0.000E+00 0.000E+00 0.000E+00
BIGSUB   5        0  3.0.25558E+00  3187.022     0.000  1510.943   900.421    98.823    34.529   783.480     7.715  2256.059    34.783    52.538     6.424     0.048     0.031     5.094  1463.058     2.202     0.002 .00000E+00 0.000E+00 0.000E+00 0.000E+00 0.000E+00 0.000E+00
BIGSUB   6        0  3.0.15319E+00  3187.023     0.000  1511.467   911.361   115.908    95.201   642.843    72.264  2253.086    32.753    49.801     6.084     0.038     0.033     4.794  1533.155     2.407     0.017 .00000E+00 0.000E+00 0.000E+00 0.000E+00 0.000E+00 0.000E+00
BIGSUB   7        0  3.0.13143E+00  3187.023     0.000  1511.516   901.152   109.868    66.818   744.141    48.134  2266.517    45.064    52.534     6.532     0.715     0.058     5.209  1470.855     4.404     0.025 .00000E+00 0.000E+00 0.000E+00 0.000E+00 0.000E+00 0.000E+00
BIGSUB   8        0  3.0.90085E-01  3187.023     0.000  1512.190   937.829   150.534   156.121   599.833   121.983  2217.499    21.369    46.614     5.729     0.376     0.045     4.457  1487.771     3.200     0.032 .00000E+00 0.000E+00 0.000E+00 0.000E+00 0.000E+00 0.000E+00
BIGSUB   9        0  3.0.37142E-01  3187.023     0.000  1512.362   942.498   124.824   186.853   730.896   155.398  2217.810    16.566    40.072     4.896     0.051     0.075     3.786  1322.127     2.185     0.040 .00000E+00 0.000E+00 0.000E+00 0.000E+00 0.000E+00 0.000E+00
