1
    SWAT Dec 23 2016    VER 2016/Rev 664                                                                 0/ 0/   0      0: 0: 0

    General Input/Output section (file.cio):                                        
    2/6/2020 17:49:42 QSWAT Workflow v1.5.2                                         
                                                                                    
         Number of years in run:    5
         Area of watershed:        1.363 km2
1
    SWAT Dec 23 2016    VER 2016/Rev 664                                            

    General Input/Output section (file.cio):                                        
    2/6/2020 17:49:42 QSWAT Workflow v1.5.2                                         
                                                                                    
Annual Summary for Watershed in year    1 of simulation

UNIT                                    PERCO    TILE                           WATER     SED     NO3     NO3     NO3     NO3        N       P       P
TIME     PREC    SURQ    LATQ     GWQ    LATE       Q     SW       ET     PET   YIELD   YIELD    SURQ    LATQ    PERC    CROP  ORGANIC SOLUBLE ORGANIC TILENO3
         (mm)    (mm)    (mm)    (mm)    (mm)    (mm)    (mm)    (mm)    (mm)    (mm)   (t/ha)  ------------------(kg nutrient/ha)-------------------- (kg/ha)
1
    SWAT Dec 23 2016    VER 2016/Rev 664                                            

    General Input/Output section (file.cio):                                        
    2/6/2020 17:49:42 QSWAT Workflow v1.5.2                                         
                                                                                    
Annual Summary for Watershed in year    2 of simulation

UNIT                                    PERCO    TILE                           WATER     SED     NO3     NO3     NO3     NO3        N       P       P
TIME     PREC    SURQ    LATQ     GWQ    LATE       Q     SW       ET     PET   YIELD   YIELD    SURQ    LATQ    PERC    CROP  ORGANIC SOLUBLE ORGANIC TILENO3
         (mm)    (mm)    (mm)    (mm)    (mm)    (mm)    (mm)    (mm)    (mm)    (mm)   (t/ha)  ------------------(kg nutrient/ha)-------------------- (kg/ha)
1
    SWAT Dec 23 2016    VER 2016/Rev 664                                            

    General Input/Output section (file.cio):                                        
    2/6/2020 17:49:42 QSWAT Workflow v1.5.2                                         
                                                                                    
Annual Summary for Watershed in year    3 of simulation

UNIT                                    PERCO    TILE                           WATER     SED     NO3     NO3     NO3     NO3        N       P       P
TIME     PREC    SURQ    LATQ     GWQ    LATE       Q     SW       ET     PET   YIELD   YIELD    SURQ    LATQ    PERC    CROP  ORGANIC SOLUBLE ORGANIC TILENO3
         (mm)    (mm)    (mm)    (mm)    (mm)    (mm)    (mm)    (mm)    (mm)    (mm)   (t/ha)  ------------------(kg nutrient/ha)-------------------- (kg/ha)
    1  288.00   16.69  147.59    4.33    3.10    0.00  108.74  108.64  152.48  168.81    1.49    0.00    0.21    0.15    0.00     2.84    0.00    0.35    0.00
    2  193.70   19.65   84.70    2.84    1.01    0.00   88.42  111.46  154.26  107.38    0.90    0.08    0.17    0.05    7.98     1.58    0.00    0.19    0.00
    3  253.90   28.01   98.43    0.89    0.30    0.00   86.87  116.27  149.62  127.51    0.10    0.00    0.01    0.01    4.33     0.15    0.00    0.02    0.00
    4  235.80   38.39  137.61    1.66    4.53    0.00   84.44   70.28  120.02  177.83    0.09    0.00    0.04    0.14    0.92     0.12    0.00    0.01    0.00
    5  487.20  149.12  245.16    3.60   13.95    0.00  101.72   61.75   95.13  398.07    0.40    0.01    0.45    0.54    0.42     0.62    0.01    0.08    0.00
    6   92.90    3.30   37.18    5.37    0.20    0.00   95.19   58.87  125.08   46.09    0.02    0.00    0.05    0.00    0.00     0.03    0.00    0.00    0.00
    7  253.10   57.35  106.04    2.76    2.51    0.00  106.97   73.49  120.63  166.38    0.51    0.01    0.30    0.08    0.02     0.99    0.00    0.13    0.00
    8  264.70   64.24  129.81    2.44    6.22    0.00   97.95   75.15  131.47  196.70    0.65    0.02    0.33    0.25    0.01     1.49    0.00    0.19    0.00
    9  159.60   33.36   70.26    3.55    2.11    0.00   89.82   62.24  139.36  107.38    0.64    0.01    0.11    0.08    0.00     1.27    0.00    0.16    0.00
   10  191.40   37.55   75.33    1.29    0.90    0.00  106.23   54.31  132.48  114.37    0.53    0.03    0.13    0.03    0.00     1.59    0.00    0.20    0.00
   11  422.80  123.16  212.78    2.45   11.35    0.00  109.59   77.11  144.42  338.58    3.48    0.01    0.52    0.58    0.00     8.22    0.01    1.01    0.00
   12  695.90  330.22  259.51    5.51   18.52    0.00  113.11   75.26  144.77  595.49   19.40    0.01    0.58    1.03    0.00    30.05    0.01    3.67    0.00

 2009 3539.00  901.04 1604.41   36.68   64.70    0.00  113.11  944.82 1609.71 2544.58   28.23    0.19    2.88    2.94   13.68    48.94    0.05    6.00    0.00
1
    SWAT Dec 23 2016    VER 2016/Rev 664                                            

    General Input/Output section (file.cio):                                        
    2/6/2020 17:49:42 QSWAT Workflow v1.5.2                                         
                                                                                    
Annual Summary for Watershed in year    4 of simulation

UNIT                                    PERCO    TILE                           WATER     SED     NO3     NO3     NO3     NO3        N       P       P
TIME     PREC    SURQ    LATQ     GWQ    LATE       Q     SW       ET     PET   YIELD   YIELD    SURQ    LATQ    PERC    CROP  ORGANIC SOLUBLE ORGANIC TILENO3
         (mm)    (mm)    (mm)    (mm)    (mm)    (mm)    (mm)    (mm)    (mm)    (mm)   (t/ha)  ------------------(kg nutrient/ha)-------------------- (kg/ha)
    1  719.30  330.73  272.12    8.83   19.27    0.00  112.39   95.77  126.09  612.03   37.49    0.00    0.54    1.01    0.00    50.73    0.02    6.20    0.00
    2  402.00  142.70  181.31   10.38   10.06    0.00   96.95   96.29  128.58  334.84    4.49    0.16    0.40    0.43    7.47     3.33    0.00    0.41    0.00
    3  126.80   10.64   53.20    9.41    0.01    0.00   61.05   98.02  149.98   73.78    0.05    0.00    0.00    0.00    3.65     0.02    0.00    0.00    0.00
    4  262.70   21.60  128.20    2.40    0.33    0.00   77.82   93.74  118.46  152.65    0.07    0.02    0.08    0.00    1.75     0.03    0.00    0.00    0.00
    5  168.00   10.48   94.76    1.11    1.33    0.00   83.01   58.34   94.70  106.73    0.05    0.00    0.11    0.01    0.17     0.02    0.00    0.00    0.00
    6  128.30    0.68   67.80    1.12    1.75    0.00   84.16   57.68   78.91   69.89    0.01    0.00    0.16    0.03    0.00     0.00    0.00    0.00    0.00
    7  210.70   16.50  103.01    1.13    3.23    0.00   98.49   64.11   91.91  120.88    0.09    0.01    0.27    0.06    0.02     0.06    0.00    0.01    0.00
    8  109.70    4.70   58.17    1.59    0.58    0.00   90.58   63.65  110.97   64.67    0.05    0.00    0.11    0.01    0.01     0.03    0.00    0.00    0.00
    9  246.10   43.72  123.50    1.14    4.49    0.00   95.95   68.87  114.71  168.54    0.67    0.01    0.32    0.13    0.00     0.55    0.00    0.07    0.00
   10  389.40  126.67  154.16    2.94    7.16    0.00  108.58   77.01  114.07  283.94    5.06    0.01    0.29    0.21    0.00     3.21    0.01    0.40    0.00
   11  232.50   46.14  134.93    4.17    6.67    0.00   99.64   65.68  112.65  185.43    0.92    0.00    0.25    0.21    0.00     0.72    0.00    0.09    0.00
   12  313.60   52.02  160.13    5.35    7.33    0.00  108.95   83.74  110.00  217.74    4.63    0.00    0.25    0.25    0.00     2.02    0.00    0.25    0.00

 2010 3309.10  806.59 1531.27   49.58   62.22    0.00  108.95  922.91 1351.03 2391.12   53.57    0.23    2.78    2.35   13.07    60.73    0.04    7.44    0.00
1
    SWAT Dec 23 2016    VER 2016/Rev 664                                            

    General Input/Output section (file.cio):                                        
    2/6/2020 17:49:42 QSWAT Workflow v1.5.2                                         
                                                                                    
Annual Summary for Watershed in year    5 of simulation

UNIT                                    PERCO    TILE                           WATER     SED     NO3     NO3     NO3     NO3        N       P       P
TIME     PREC    SURQ    LATQ     GWQ    LATE       Q     SW       ET     PET   YIELD   YIELD    SURQ    LATQ    PERC    CROP  ORGANIC SOLUBLE ORGANIC TILENO3
         (mm)    (mm)    (mm)    (mm)    (mm)    (mm)    (mm)    (mm)    (mm)    (mm)   (t/ha)  ------------------(kg nutrient/ha)-------------------- (kg/ha)
    1  653.30  197.93  334.27    6.90   24.16    0.00  107.89   98.09  121.12  539.41   30.01    0.00    0.56    0.84    0.00    37.77    0.01    4.62    0.00
    2  340.10   88.92  166.34    9.39    9.90    0.00   82.03  101.78  130.72  265.04    3.44    0.03    0.38    0.33    6.15     2.49    0.00    0.31    0.00
    3  146.50    1.13   51.53    7.57    0.00    0.00   49.91  119.22  173.97   60.71    0.02    0.00    0.00    0.00    3.13     0.01    0.00    0.00    0.00
    4  101.90    1.13   52.60    1.59    0.03    0.00   36.15   68.30  126.37   55.73    0.01    0.00    0.01    0.00    1.21     0.01    0.00    0.00    0.00
    5   93.90    0.22   38.35    0.26    0.02    0.00   40.24   51.35  112.47   39.16    0.01    0.00    0.04    0.00    0.46     0.00    0.00    0.00    0.00
    6  178.30   10.28   93.47    0.08    0.19    0.00   56.51   58.29  107.78  104.07    0.03    0.00    0.14    0.00    0.07     0.02    0.00    0.00    0.00
    7   58.80    0.13   21.09    0.08    0.00    0.00   52.84   41.04  142.90   21.50    0.00    0.00    0.03    0.00    0.22     0.00    0.00    0.00    0.00
    8   97.80    0.23   38.08    0.03    0.05    0.00   55.38   55.69  133.21   38.49    0.01    0.00    0.06    0.00    0.13     0.01    0.00    0.00    0.00
    9   48.70    0.28   21.80    0.01    0.02    0.00   41.11   42.03  150.18   22.20    0.00    0.00    0.05    0.00    0.10     0.00    0.00    0.00    0.00
   10  321.90   16.73  193.02    0.02    1.49    0.00   87.38   59.09  137.28  209.85    0.30    0.00    0.57    0.05    0.05     0.35    0.00    0.04    0.00
   11  404.00   94.32  219.71    0.59    8.71    0.00   99.31   74.48  105.07  314.70    3.68    0.01    0.29    0.27    0.00     2.69    0.00    0.33    0.00
   12  246.50   40.52  125.40    2.71    4.63    0.00  102.34   73.01  132.31  168.76    2.18    0.00    0.15    0.14    0.00     1.24    0.00    0.15    0.00

 2011 2691.70  451.83 1355.66   29.23   49.19    0.00  102.34  842.38 1573.37 1839.61   39.70    0.05    2.30    1.62   11.51    44.60    0.02    5.46    0.00
    1   30.00    4.77   10.96    0.12    0.68    0.00  107.32    3.19    3.56   15.85    0.20    0.00    0.01    0.02    0.00     0.10    0.00    0.01    0.00

 2011   30.00    4.77   10.96    0.12    0.68    0.00  107.32    3.19    3.56   15.85    0.20    0.00    0.01    0.02    0.00     0.10    0.00    0.01    0.00
1
    SWAT Dec 23 2016    VER 2016/Rev 664                                            

    General Input/Output section (file.cio):                                        
    2/6/2020 17:49:42 QSWAT Workflow v1.5.2                                         
                                                                                    
    FINAL VALUES

1
    SWAT Dec 23 2016    VER 2016/Rev 664                                            

    General Input/Output section (file.cio):                                        
    2/6/2020 17:49:42 QSWAT Workflow v1.5.2                                         
                                                                                    
                                            Average Plant Values (kg/ha)

  HRU       1 SUB   1 FRSE  Yld =  5318.4 BIOM =   7597.7
  HRU       2 SUB   1 FRSE  Yld =  2603.5 BIOM =   3719.2
  HRU       3 SUB   1 FRSE  Yld =  5159.1 BIOM =   7370.1
  HRU       4 SUB   1 AGRL  Yld =  5076.8 BIOM =  14584.5
  HRU       5 SUB   1 AGRL  Yld =  4691.2 BIOM =  13614.7
  HRU       6 SUB   2 SWCH  Yld = 22495.1 BIOM =  36159.7
  HRU       7 SUB   2 FRSE  Yld =  4024.7 BIOM =   5749.6
  HRU       8 SUB   2 FRSE  Yld =  5318.4 BIOM =   7597.7
  HRU       9 SUB   2 FRSE  Yld =  5159.2 BIOM =   7370.3
  HRU      10 SUB   2 FRSD  Yld =  5375.3 BIOM =   9902.6
  HRU      11 SUB   2 FRSD  Yld =  6414.8 BIOM =  11996.4
  HRU      12 SUB   2 FRSD  Yld =  5380.2 BIOM =   9914.6
  HRU      13 SUB   2 FRSD  Yld =  5384.9 BIOM =   9925.9
  HRU      14 SUB   3 FRSE  Yld =  5315.3 BIOM =   7593.3
  HRU      15 SUB   3 FRSE  Yld =  5160.6 BIOM =   7372.3
  HRU      16 SUB   4 FRSE  Yld =  5318.4 BIOM =   7597.7
  HRU      17 SUB   4 FRSE  Yld =  5158.5 BIOM =   7369.2
  HRU      18 SUB   4 BARR  Yld =     0.0 BIOM =      0.8
  HRU      19 SUB   4 FRSD  Yld =  5369.8 BIOM =   9889.8
  HRU      20 SUB   4 AGRL  Yld =  5197.1 BIOM =  14925.1
  HRU      21 SUB   5 SWCH  Yld = 17570.6 BIOM =  28518.1
  HRU      22 SUB   5 FRSE  Yld =  5318.4 BIOM =   7597.7
  HRU      23 SUB   5 FRSE  Yld =  2604.6 BIOM =   3720.8
  HRU      24 SUB   5 FRSE  Yld =  2600.0 BIOM =   3714.2
  HRU      25 SUB   5 FRSE  Yld =  4947.3 BIOM =   7067.5
  HRU      26 SUB   5 BARR  Yld =     0.0 BIOM =      0.8
  HRU      27 SUB   5 FRSD  Yld =  5376.0 BIOM =   9904.4
  HRU      28 SUB   6 FRSE  Yld =  4029.8 BIOM =   5756.8
  HRU      29 SUB   6 FRSE  Yld =  5291.6 BIOM =   7559.5
  HRU      30 SUB   6 FRSE  Yld =  2601.5 BIOM =   3716.4
  HRU      31 SUB   6 FRSE  Yld =  5160.5 BIOM =   7372.2
  HRU      32 SUB   6 FRSD  Yld =  5379.0 BIOM =   9911.5
  HRU      33 SUB   6 FRSD  Yld =  6195.6 BIOM =  11401.4
  HRU      34 SUB   6 AGRL  Yld =  5223.7 BIOM =  15001.5
  HRU      35 SUB   7 AGRL  Yld =  5114.2 BIOM =  14690.1
  HRU      36 SUB   7 AGRL  Yld =  4706.3 BIOM =  13601.3
  HRU      37 SUB   7 AGRL  Yld =  5102.6 BIOM =  14657.1
  HRU      38 SUB   7 AGRL  Yld =  4796.1 BIOM =  13810.5
  HRU      39 SUB   7 AGRL  Yld =  5156.5 BIOM =  14809.4
  HRU      40 SUB   7 SWCH  Yld = 17585.9 BIOM =  28553.7
  HRU      41 SUB   7 FRSE  Yld =  5318.4 BIOM =   7597.7
  HRU      42 SUB   7 FRSE  Yld =  5159.0 BIOM =   7370.1
  HRU      43 SUB   7 FRSD  Yld =  6129.7 BIOM =  11304.4
  HRU      44 SUB   7 FRSD  Yld =  5372.3 BIOM =   9895.7
  HRU      45 SUB   7 BARR  Yld =     0.0 BIOM =      0.8
  HRU      46 SUB   8 BARR  Yld =     0.0 BIOM =      0.8
  HRU      47 SUB   8 BARR  Yld =     0.0 BIOM =      0.8
  HRU      48 SUB   8 AGRL  Yld =  5060.0 BIOM =  14537.1
  HRU      49 SUB   8 AGRL  Yld =  4691.9 BIOM =  13616.6
  HRU      50 SUB   8 SWCH  Yld = 22727.5 BIOM =  36487.8
  HRU      51 SUB   8 SWCH  Yld = 17560.7 BIOM =  28503.1
  HRU      52 SUB   8 FRSE  Yld =  4022.1 BIOM =   5745.9
  HRU      53 SUB   8 FRSE  Yld =  4029.5 BIOM =   5756.5
  HRU      54 SUB   8 FRSE  Yld =  5313.1 BIOM =   7590.2
  HRU      55 SUB   8 FRSE  Yld =  5161.9 BIOM =   7374.1
  HRU      56 SUB   8 BARR  Yld =     0.0 BIOM =      0.8
  HRU      57 SUB   9 SWCH  Yld = 17559.1 BIOM =  28500.7
  HRU      58 SUB   9 FRSE  Yld =  5188.8 BIOM =   7412.5
  HRU      59 SUB   9 FRSE  Yld =  5161.9 BIOM =   7374.1
  HRU      60 SUB   9 FRSE  Yld =    40.5 BIOM =     57.9
  HRU      61 SUB   9 FRSE  Yld =  4991.3 BIOM =   7130.5
  HRU      62 SUB   9 FRSE  Yld =    40.5 BIOM =     57.9
  HRU      63 SUB   9 FRSE  Yld =  5318.4 BIOM =   7597.7
  HRU      64 SUB   9 FRSE  Yld =    40.5 BIOM =     57.9

    HRU STATISTICS

                AVE ANNUAL VALUES

   HRU  SUB  SOIL       AREAkm2    CN     AWCmm   USLE_LS  IRRmm  AUTONkh AUTOPkh  MIXEF PRECmm SURQGENmm   GWQmm    ETmm   SEDth  NO3kgh  ORGNkgh BIOMth   YLDth  SURQmm
      1   1   AUA        .686E-01   55.00  165.80    7.70    0.00    0.00    0.00    0.20 3187.02  440.41 1755.07  949.14   14.21    2.72   46.38   10.17    7.12  440.41
      2   1   FAGASA     .205E-03   70.00   97.20    0.11    0.00    0.00    0.00    0.20 3187.02  896.52 1221.06  961.12    0.27    0.03    4.08    4.85    3.40  896.12
      3   1   FAGASA     .172E+00   70.00   97.20   13.20    0.00    0.00    0.00    0.20 3187.02  763.54 1526.48  882.31   61.92    2.47   55.03    9.72    6.80  763.54
      4   1   AUA        .154E-02   77.00  165.80    8.99    0.00  177.02    0.00    0.20 3187.02 1140.76 1104.40  910.66   49.05   30.03   57.29   19.73    6.86 1140.76
      5   1   FAGASA     .185E-02   83.00   97.20   11.02    0.00  202.53    0.00    0.20 3187.02 1212.95 1132.84  839.60   91.97   38.62   68.53   17.95    6.15 1212.95
      6   2   AUA        .308E-03   59.00  165.80    2.45    0.00  119.66    0.00    0.20 3187.02  537.91 1501.61 1059.39    0.06    4.20    0.57   45.96   29.79  537.91
      7   2   AUA        .103E-03   55.00  165.80    0.17    0.00    0.00    0.00    0.20 3187.02  462.64 1599.24  997.46    0.11    0.02    1.41    7.52    5.26  462.59
      8   2   AUA        .274E-01   55.00  165.80    8.57    0.00    0.00    0.00    0.20 3187.02  438.17 1761.99  946.00   14.14    2.81   46.42   10.17    7.12  438.17
      9   2   FAGASA     .992E-01   70.00   97.20   13.25    0.00    0.00    0.00    0.20 3187.02  763.55 1526.50  882.30   58.23    2.48   54.73    9.72    6.80  763.55
     10   2   FAGASA     .236E-02   77.00   97.20   21.18    0.00    0.00    0.00    0.20 3187.02  961.14 1334.31  886.25   23.42    1.88   46.80   19.23    9.31  961.14
     11   2   AUA        .718E-03   77.00  165.80    3.82    0.00    0.00    0.00    0.20 3187.02 1162.08 1000.32  986.58    2.73    1.85   20.18   24.79   12.07 1162.08
     12   2   FAGASA     .380E-02   77.00   97.20   13.93    0.00    0.00    0.00    0.20 3187.02  961.15 1333.70  886.23   16.29    1.88   42.51   19.26    9.33  961.15
     13   2   FAGASA     .923E-03   77.00   97.20   12.30    0.00    0.00    0.00    0.20 3187.02  961.15 1333.56  886.22   12.14    1.89   39.82   19.29    9.34  961.15
     14   3   AUA        .358E-01   55.00  165.80    7.26    0.00    0.00    0.00    0.20 3187.02  441.66 1751.47  950.69   12.41    2.66   45.34   10.16    7.11  441.66
     15   3   FAGASA     .915E-01   70.00   97.20   10.67    0.00    0.00    0.00    0.20 3187.02  763.57 1525.81  882.27   46.44    2.46   53.94    9.72    6.80  763.57
     16   4   AUA        .156E-01   55.00  165.80    8.57    0.00    0.00    0.00    0.20 3187.02  438.21 1762.23  945.79   13.22    2.81   45.94   10.17    7.12  438.21
     17   4   FAGASA     .826E-01   70.00   97.20   18.63    0.00    0.00    0.00    0.20 3187.02  763.63 1527.72  882.18   80.17    2.50   56.07    9.71    6.80  763.63
     18   4   FAGASA     .205E-03   91.00   97.20   21.18    0.00    0.00    0.00    0.20 3187.02 1707.00  722.07  754.30  510.36    2.39   55.71    0.00    0.00 1707.00
     19   4   FAGASA     .910E-01   77.00   97.20   19.83    0.00    0.00    0.00    0.20 3187.02  961.24 1334.16  886.23   33.94    1.86   50.81   19.20    9.30  961.24
     20   4   AUA        .103E-03   77.00  165.80    1.82    0.00  150.22    0.00    0.20 3187.02 1214.95  946.13  948.68    7.31   10.12   42.32   20.23    7.04 1214.95
     21   5   FAGASA     .205E-03   72.00   97.20   17.22    0.00  124.26    0.00    0.20 3187.02  673.03 1601.38  898.25    0.88   11.48    5.43   34.04   22.12  673.03
     22   5   AUA        .234E-01   55.00  165.80   10.46    0.00    0.00    0.00    0.20 3187.02  432.49 1778.79  939.16   16.88    2.95   47.60   10.17    7.12  432.50
     23   5   FAGASA     .103E-03   70.00   97.20    0.07    0.00    0.00    0.00    0.20 3187.02  896.58 1220.85  961.07    0.04    0.02    0.95    4.85    3.40  895.10
     24   5   FAGASA     .513E-03   70.00   97.20    0.35    0.00    0.00    0.00    0.20 3187.02  896.26 1222.97  960.79    1.38    0.07   16.06    4.84    3.39  896.17
     25   5   FAGASA     .210E+00   70.00   97.20    7.34    0.00    0.00    0.00    0.20 3187.02  802.84 1452.18  897.63   37.38    2.21   53.89    9.32    6.52  802.84
     26   5   FAGASA     .410E-03   91.00   97.20   17.24    0.00    0.00    0.00    0.20 3187.02 1706.73  722.27  754.35  451.27    2.39   55.71    0.00    0.00 1706.73
     27   5   FAGASA     .209E-01   77.00   97.20   15.28    0.00    0.00    0.00    0.20 3187.02  961.17 1333.80  886.23   21.94    1.87   45.99   19.23    9.31  961.17
     28   6   AUA        .410E-03   55.00  165.80    0.35    0.00    0.00    0.00    0.20 3187.02  462.48 1600.33  997.35    0.38    0.04    4.44    7.53    5.27  462.46
     29   6   AUA        .588E-01   55.00  165.80    5.80    0.00    0.00    0.00    0.20 3187.02  445.25 1739.16  956.64   10.56    2.44   43.77   10.11    7.07  445.25
     30   6   FAGASA     .103E-03   70.00   97.20    0.44    0.00    0.00    0.00    0.20 3187.02  896.21 1223.22  960.88    1.41    0.07   16.12    4.84    3.39  896.13
     31   6   FAGASA     .924E-01   70.00   97.20   10.86    0.00    0.00    0.00    0.20 3187.02  763.54 1525.91  882.31   47.31    2.47   54.00    9.72    6.80  763.54
     32   6   FAGASA     .123E-02   77.00   97.20   17.38    0.00    0.00    0.00    0.20 3187.02  961.13 1334.00  886.24   17.77    1.89   43.36   19.25    9.32  961.13
     33   6   AUA        .103E-03   77.00  165.80    3.96    0.00    0.00    0.00    0.20 3187.02 1189.69  938.19 1005.86    2.26    1.21   17.83   23.42   11.64 1189.69
     34   6   AUA        .103E-03   77.00  165.80    2.69    0.00  151.82    0.00    0.20 3187.02 1217.12  932.81  950.40   10.65    6.40   47.89   20.34    7.08 1217.10
     35   7   AUA        .205E-03   77.00  165.80    3.44    0.00  172.73    0.00    0.20 3187.02 1187.29 1025.27  930.70   15.09   26.49   51.05   19.88    6.92 1187.29
     36   7   FAGASA     .482E-02   77.00   97.20   11.64    0.00  212.10    0.00    0.20 3187.02  995.62 1328.67  856.08   90.76   40.62   66.73   17.93    6.18  995.62
     37   7   AUA        .616E-03   77.00  165.80    4.10    0.00  173.47    0.00    0.20 3187.02 1182.56 1033.95  928.47   20.52   26.67   53.03   19.84    6.90 1182.56
     38   7   FAGASA     .123E-02   77.00   97.20    6.52    0.00  209.98    0.00    0.20 3187.02 1077.67 1204.41  877.53   45.71   39.63   61.92   18.33    6.35 1077.67
     39   7   AUA        .790E-02   77.00  165.80    2.75    0.00  148.89    0.00    0.20 3187.02 1211.29  962.90  946.34   18.88   13.78   51.45   20.05    6.98 1211.29
     40   7   FAGASA     .308E-03   72.00   97.20   21.18    0.00  124.68    0.00    0.20 3187.02  672.96 1601.96  898.26    1.15   11.50    6.55   34.07   22.14  672.96
     41   7   AUA        .336E-01   55.00  165.80    9.47    0.00    0.00    0.00    0.20 3187.02  435.71 1770.05  942.81   15.99    2.88   47.26   10.17    7.12  435.71
     42   7   FAGASA     .686E-01   70.00   97.20   14.72    0.00    0.00    0.00    0.20 3187.02  763.53 1526.82  882.32   61.94    2.48   55.03    9.72    6.80  763.53
     43   7   AUA        .205E-03   66.00  165.80    3.09    0.00    0.00    0.00    0.20 3187.02  750.55 1388.87  999.32    1.43    1.62   12.82   23.26   11.53  750.55
     44   7   FAGASA     .135E-01   77.00   97.20   21.18    0.00    0.00    0.00    0.20 3187.02  961.12 1334.31  886.26   28.88    1.88   49.21   19.21    9.31  961.12
     45   7   FAGASA     .410E-03   91.00   97.20    7.57    0.00    0.00    0.00    0.20 3187.02 1777.44  641.08  764.49  205.38    2.19   55.45    0.00    0.00 1777.44
     46   8   AUA        .441E-02   91.00  165.80    2.71    0.00    0.00    0.00    0.20 3187.02 2057.08  200.32  888.84   80.52    1.51   49.83    0.00    0.00 2057.08
     47   8   AUA        .616E-03   91.00  165.80    3.23    0.00    0.00    0.00    0.20 3187.02 2007.51  325.53  844.67   74.69    1.81   49.64    0.00    0.00 2007.51
     48   8   AUA        .154E-02   77.00  165.80   11.66    0.00  178.21    0.00    0.20 3187.02 1108.52 1165.78  899.45   62.26   32.30   58.31   19.67    6.84 1108.52
     49   8   FAGASA     .133E-02   83.00   97.20   11.37    0.00  202.52    0.00    0.20 3187.02 1212.98 1132.79  839.60   91.23   38.62   68.46   17.95    6.15 1212.98
     50   8   AUA        .923E-03   59.00  165.80    2.44    0.00  119.00    0.00    0.20 3187.02  541.16 1484.55 1064.12    0.07    3.15    0.76   46.63   30.26  541.16
     51   8   FAGASA     .103E-03   72.00   97.20   12.43    0.00  124.15    0.00    0.20 3187.02  672.95 1600.70  898.33    0.53   11.49    3.79   34.02   22.11  672.95
     52   8   AUA        .103E-03   55.00  165.80    0.07    0.00    0.00    0.00    0.20 3187.02  462.71 1598.37  997.75    0.01    0.01    0.21    7.51    5.26  462.38
     53   8   AUA        .513E-03   55.00  165.80    0.33    0.00    0.00    0.00    0.20 3187.02  462.48 1600.04  997.54    0.38    0.04    4.36    7.53    5.27  462.46
     54   8   AUA        .686E-01   55.00  165.80    6.98    0.00    0.00    0.00    0.20 3187.02  442.34 1749.01  951.96   12.88    2.62   45.63   10.16    7.11  442.34
     55   8   FAGASA     .118E-01   70.00   97.20   10.38    0.00    0.00    0.00    0.20 3187.02  763.49 1525.58  882.38   35.35    2.47   53.20    9.72    6.81  763.49
     56   8   AUA        .103E-03   86.00  165.80    2.68    0.00    0.00    0.00    0.20 3187.02 1713.21  498.57  924.46   43.10    1.38   47.89    0.00    0.00 1713.21
     57   9   FAGASA     .513E-03   72.00   97.20   10.51    0.00  124.15    0.00    0.20 3187.02  672.93 1600.32  898.34    0.61   11.48    4.27   34.02   22.11  672.93
     58   9   AUA        .188E-01   55.00  165.80    4.10    0.00    0.00    0.00    0.20 3187.02  449.11 1722.07  964.79    6.60    2.22   38.00    9.89    6.92  449.11
     59   9   FAGASA     .126E-01   70.00   97.20   10.91    0.00    0.00    0.00    0.20 3187.02  763.48 1525.91  882.40   37.47    2.48   53.33    9.72    6.81  763.48
     60   9   URBAN LA   .185E-02   77.00    1.50    1.31    0.00    0.00    0.00    0.20 3187.02 2121.69    0.00 1050.15    0.00    0.01    0.00    0.07    0.05 2121.66
     61   9   AUA        .923E-03   77.00  165.80    2.07    0.00    0.00    0.00    0.20 3187.02 1214.05  910.82  988.19    5.14    0.68   34.64    9.41    6.58 1214.05
     62   9   URBAN LA   .205E-03   77.00    1.50    1.98    0.00    0.00    0.00    0.20 3187.02 2121.67    0.00 1050.14    0.00    0.01    0.00    0.07    0.05 2121.67
     63   9   AUA        .164E-02   77.00  165.80    3.19    0.00    0.00    0.00    0.20 3187.02 1189.68  989.95  962.70    8.15    2.17   41.17   10.17    7.12 1189.68
     64   9   URBAN LA   .616E-03   77.00    1.50    1.98    0.00    0.00    0.00    0.20 3187.02 2121.69    0.00 1050.15    0.00    0.01    0.00    0.07    0.05 2121.67



                AVE MONTHLY BASIN VALUES
                   SNOW                      WATER               SED
  MON     RAIN     FALL   SURF Q    LAT Q    YIELD       ET    YIELD      PET
          (MM)     (MM)     (MM)     (MM)     (MM)     (MM)   (T/HA)     (MM)
    1   557.54     0.00   181.42   252.27   440.63   100.81    22.82   132.98
    2   311.93     0.00    83.76   144.12   235.75   103.17     2.95   137.85
    3   175.73     0.00    13.26    67.72    87.33   111.17     0.06   157.86
    4   200.13     0.00    20.38   106.14   128.73    77.44     0.06   121.62
    5   249.70     0.00    53.27   126.09   181.32    57.15     0.15   100.77
    6   133.17     0.00     4.75    66.15    73.35    58.28     0.02   103.92
    7   174.20     0.00    24.66    76.71   102.92    59.55     0.20   118.48
    8   157.40     0.00    23.06    75.35    99.95    64.83     0.24   125.22
    9   151.47     0.00    25.79    71.85    99.37    57.71     0.44   134.75
   10   300.90     0.00    60.32   140.83   202.72    63.47     1.96   127.94
   11   353.10     0.00    87.87   189.14   279.57    72.42     2.70   120.71
   12   418.67     0.00   140.92   181.68   327.33    77.34     8.73   129.02

     AVE ANNUAL BASIN STRESS DAYS
               WATER STRESS DAYS =     2.92
               TEMPERATURE STRESS DAYS =     0.15
               NITROGEN STRESS DAYS =     3.96
               PHOSPHORUS STRESS DAYS =     0.03
               AERATION STRESS DAYS =     0.00
1
    SWAT Dec 23 2016    VER 2016/Rev 664                                            

    General Input/Output section (file.cio):                                        
    2/6/2020 17:49:42 QSWAT Workflow v1.5.2                                         
                                                                                    
         AVE ANNUAL BASIN VALUES

              PRECIP =   3187.0 MM
              SNOW FALL =    0.00 MM
              SNOW MELT =     0.00 MM
              SUBLIMATION =     0.00 MM
              SURFACE RUNOFF Q =   720.75 MM
              LATERAL SOIL Q = 1499.40 MM
              TILE Q =     0.00 MM
              GROUNDWATER (SHAL AQ) Q =    38.50 MM
              GROUNDWATER (DEEP AQ) Q =     3.00 MM
              REVAP (SHAL AQ => SOIL/PLANTS) =   30.22 MM
              DEEP AQ RECHARGE =     2.96 MM
              TOTAL AQ RECHARGE =   59.13 MM
              TOTAL WATER YLD =  2261.65 MM
              PERCOLATION OUT OF SOIL =   58.88 MM
              ET =    903.6 MM
              PET =   1511.2MM
              TRANSMISSION LOSSES =     0.00 MM
              SEPTIC INFLOW =       0.00 MM
              TOTAL SEDIMENT LOADING =     40.53 T/HA
              TILE FROM IMPOUNDED WATER =     0.000 (MM)
              EVAPORATION FROM IMPOUNDED WATER =     0.000 (MM)
              SEEPAGE INTO SOIL FROM IMPOUNDED WATER =    0.000 (MM)
              OVERFLOW FROM IMPOUNDED WATER =    0.000 (MM)
1
    SWAT Dec 23 2016    VER 2016/Rev 664                                            

    General Input/Output section (file.cio):                                        
    2/6/2020 17:49:42 QSWAT Workflow v1.5.2                                         
                                                                                    
              AVE ANNUAL BASIN VALUES


              NUTRIENTS
                   ORGANIC N =    51.409 (KG/HA)
                   ORGANIC P =     6.297 (KG/HA)
                   NO3 YIELD (SQ) =     0.157 (KG/HA)
                   NO3 YIELD (LAT) =    2.659 (KG/HA)
                   NO3 YIELD (TILE) =    0.000 (KG/HA)
                   SOLP YIELD (TILE) =    0.000(KG/HA)
                   SOLP YIELD (SURF INLET RISER) =    0.000 (KG/HA)
                   SOL P YIELD =    0.036 (KG/HA)
                   NO3 LEACHED =     2.307 (KG/HA)
                   P LEACHED =     0.026 (KG/HA)
                   N UPTAKE =    12.744 (KG/HA)
                   P UPTAKE =    2.348 (KG/HA)
                   NO3 YIELD (GWQ) =     0.011 (KG/HA)
                   ACTIVE TO SOLUTION P FLOW =         0.407 (KG/HA)
                   ACTIVE TO STABLE P FLOW =         0.833 (KG/HA)
                   N FERTILIZER APPLIED =     3.014 (KG/HA)
                   P FERTILIZER APPLIED =     0.000 (KG/HA)
                   N FIXATION =     0.000 (KG/HA)
                   DENITRIFICATION =     0.000 (KG/HA)
                   HUMUS MIN ON ACTIVE ORG N =    15.189 (KG/HA)
                   ACTIVE TO STABLE ORG N =    -7.582 (KG/HA)
                   HUMUS MIN ON ACTIVE ORG P =    2.600 (KG/HA)
                   MIN FROM FRESH ORG N =    2.935 (KG/HA)
                   MIN FROM FRESH ORG P =    0.487 (KG/HA)
                   NO3 IN RAINFALL =     0.000 (KG/HA)
                   INITIAL NO3 IN SOIL =      37.089 (KG/HA)
                   FINAL NO3 IN SOIL =         6.369 (KG/HA)
                   INITIAL ORG N IN SOIL =   13045.640 (KG/HA)
                   FINAL ORG N IN SOIL =     12517.541 (KG/HA)
                   INITIAL MIN P IN SOIL =    2014.960 (KG/HA)
                   FINAL MIN P IN SOIL =      1973.232 (KG/HA)
                   INITIAL ORG P IN SOIL =    1598.091 (KG/HA)
                   FINAL ORG P IN SOIL =    1529.729 (KG/HA)
                   NO3 IN FERT =     3.014 (KG/HA)
                   AMMONIA IN FERT =     0.000 (KG/HA)
                   ORG N IN FERT =     0.000 (KG/HA)
                   MINERAL P IN FERT =     0.000 (KG/HA)
                   ORG P IN FERT =     0.000 (KG/HA)
                   N REMOVED IN YIELD =     9.142 (KG/HA)
                   P REMOVED IN YIELD =     1.697 (KG/HA)
                   AMMONIA VOLATILIZATION =     0.000 (KG/HA)
                   AMMONIA NITRIFICATION =      0.000 (KG/HA)
                   NO3 EVAP-LAYER 2 TO 1 =    3.021

                   DIE-GRO P Q =           0.0 (No/M2)
                   DIE-GRO LP Q =           0.0 (No/M2)
                   DIE-GRO P SED =          0.0 (No/M2)
                   DIE-GRO LP SED =          0.0 (No/M2)
                   BACT P RUNOFF =          0.0 (No/M2)
                   BACT LP RUNOFF =          0.0 (No/M2)
                   BACT P SEDIMENT =          0.0 (No/M2)
                   BACT LP SEDIMENT =          0.0 (No/M2)
                   BACT P INCORP =          0.0 (No/M2)
                   BACT LP INCORP =          0.0 (No/M2)

                   NITRATE SEPTIC =         0.00 (kg/ha)
                   AMMONIA SEPTIC =         0.00 (kg/ha)
                   ORG N SEPTIC =         0.00 (kg/ha)
                   FRESH ORGN SEPTIC =         0.00 (kg/ha)
                   ORG P SEPTIC =         0.00 (kg/ha)
                   FRESH ORGP SEPTIC =         0.00 (kg/ha)
                   SOL P SEPTIC =         0.00 (kg/ha)
                   BOD SEPTIC =         0.00 (kg/ha)
