1
    SWAT Dec 23 2016    VER 2016/Rev 664                                                                 0/ 0/   0      0: 0: 0

    General Input/Output section (file.cio):                                        
    2/12/2020 14:37:37 QSWAT Workflow v1.5.2                                        
                                                                                    
         Number of years in run:    5
         Area of watershed:        2.518 km2
         Random number generator cycles: 0, use default numbers

         Initial random number seed: wet/dry day prob        748932582
         Initial random number seed: radiation              1948832765
         Initial random number seed: precipitation           857034417
         Initial random number seed: 0.5 hr rainfall          67377721
         Initial random number seed: wind speed              366304404
         Initial random number seed: irrigation             1094585182
         Initial random number seed: relative humidity      1767585417
         Initial random number seed: max temperature         608439319
         Initial random number seed: min temperature         592757081

         Precipitation data used in run:
          Multiple gages read for watershed
             Daily rainfall data used

         Temperature data used in run:
          Multiple gages read for watershed

         PET method used: Penman-Monteith

         Rainfall/Runoff/Routing Option:
          Daily rainfall data
          Runoff estimated with curve number method
          Daily stream routing
           Variable Storage routing method
           Channel dimensions remain constant
           Subbasin algae/CBOD loadings not modeled
           In-stream nutrient transformations modeled using QUAL2E equations

         Subbasin Input Summary:
          Sub Latitude  Elev(m) #HRUs Ponds Elevbnds Wetlnd
            1   -14.29   295.93     5                   
            2   -14.29   305.00    17                   
            3   -14.29   319.44    17                   
            4   -14.29   241.53     1                   
            5   -14.29   132.66     6                   
            6   -14.29   180.51    12                   
            7   -14.29   173.80     2                   
            8   -14.29   168.70     3                   
            9   -14.29   123.38    11                   
           10   -14.29    47.84    10                   
           11   -14.29   100.19    11                   

         HRU Input Summary Table 1:
          Sub   HRU   Area(ha) Slope SlpLgth(m) Ovrlnd_N CondII_CN TimeConc(hr) ESCO EPCO
            1      1       0.37 0.023      91.46    0.100     55.00        0.652 0.95 1.00
            1      2       7.03 0.212      15.24    0.100     55.00        0.132 0.95 1.00
            1      3       0.04 0.003     121.95    0.100     70.00        1.425 0.95 1.00
            1      4       0.01 0.020     121.95    0.100     70.00        0.806 0.95 1.00
            1      5      28.41 0.457       9.15    0.100     70.00        0.128 0.95 1.00
            2      6       0.02 0.019     121.95    0.100     70.00        0.819 0.95 1.00
            2      7       0.45 0.113      60.98    0.100     70.00        0.318 0.95 1.00
            2      8       0.09 0.023      91.46    0.100     70.00        0.651 0.95 1.00
            2      9       0.68 0.102      60.98    0.100     70.00        0.329 0.95 1.00
            2     10       0.02 0.001     121.95    0.140     77.00        2.424 0.95 1.00
            2     11       0.02 0.022      91.46    0.140     77.00        0.807 0.95 1.00
            2     12       4.33 0.251       9.15    0.140     77.00        0.109 0.95 1.00
            2     13       0.30 0.328       9.15    0.140     83.00        0.091 0.95 1.00
            2     14       2.27 0.226      15.24    0.100     59.00        0.119 0.95 1.00
            2     15       0.01 0.360       9.15    0.100     72.00        0.072 0.95 1.00
            2     16       0.02 0.001     121.95    0.100     55.00        1.981 0.95 1.00
            2     17       0.06 0.024      91.46    0.100     55.00        0.643 0.95 1.00
            2     18       5.58 0.258       9.15    0.100     55.00        0.094 0.95 1.00
            2     19      17.89 0.513       9.15    0.100     70.00        0.105 0.95 1.00
            2     20       0.56 0.243      15.24    0.100     66.00        0.111 0.95 1.00
            2     21       0.46 0.448       9.15    0.100     77.00        0.069 0.95 1.00
            2     22       0.23 0.177      18.29    0.140     86.00        0.165 0.95 1.00
            3     23       0.04 0.022      91.46    0.140     86.00        0.807 0.95 1.00
            3     24       0.68 0.066      60.98    0.140     86.00        0.457 0.95 1.00
            3     25       0.01 0.400       9.15    0.140     86.00        0.085 0.95 1.00
            3     26       0.06 0.026      91.46    0.140     86.00        0.768 0.95 1.00
            3     27       0.95 0.066      60.98    0.140     86.00        0.457 0.95 1.00
            3     28       6.01 0.145      24.39    0.140     77.00        0.219 0.95 1.00
            3     29       3.25 0.397       9.15    0.140     83.00        0.092 0.95 1.00
            3     30       0.12 0.026      91.46    0.100     59.00        0.627 0.95 1.00
            3     31       4.44 0.127      24.39    0.100     59.00        0.185 0.95 1.00
            3     32       0.02 0.029      91.46    0.100     55.00        0.607 0.95 1.00
            3     33       7.11 0.149      24.39    0.100     55.00        0.182 0.95 1.00
            3     34      25.15 0.456       9.15    0.100     70.00        0.109 0.95 1.00
            3     35       0.01 0.028      91.46    0.100     66.00        0.613 0.95 1.00
            3     36       1.19 0.068      60.98    0.100     66.00        0.371 0.95 1.00
            3     37       0.39 0.460       9.15    0.100     77.00        0.068 0.95 1.00
            3     38       0.01 0.029      91.46    0.140     86.00        0.743 0.95 1.00
            3     39       0.30 0.106      60.98    0.140     86.00        0.396 0.95 1.00
            4     40      34.61 0.378       9.15    0.100     70.00        0.126 0.95 1.00
            5     41       0.01 0.008     121.95    0.100     70.00        1.061 0.95 1.00
            5     42       0.05 0.025      91.46    0.100     70.00        0.635 0.95 1.00
            5     43       0.24 0.095      60.98    0.100     70.00        0.334 0.95 1.00
            5     44      24.46 0.442       9.15    0.100     70.00        0.129 0.95 1.00
            5     45       0.01 0.113      60.98    0.100     77.00        0.316 0.95 1.00
            5     46       0.02 0.100      60.98    0.100     77.00        0.328 0.95 1.00
            6     47       0.22 0.258       9.15    0.100     59.00        0.080 0.95 1.00
            6     48       0.40 0.377       9.15    0.100     72.00        0.072 0.95 1.00
            6     49       1.96 0.553       9.15    0.100     55.00        0.070 0.95 1.00
            6     50       0.19 0.082      60.98    0.100     70.00        0.349 0.95 1.00
            6     51       0.03 0.005     121.95    0.100     70.00        1.222 0.95 1.00
            6     52       0.03 0.020     121.95    0.100     70.00        0.806 0.95 1.00
            6     53      18.03 0.435       9.15    0.100     70.00        0.115 0.95 1.00
            6     54       0.46 0.408       9.15    0.100     66.00        0.071 0.95 1.00
            6     55       0.07 0.479       9.15    0.100     77.00        0.066 0.95 1.00
            6     56       0.08 0.105      60.98    0.100     77.00        0.324 0.95 1.00
            6     57       0.01 0.213      15.24    0.100     77.00        0.114 0.95 1.00
            6     58       0.03 0.064      60.98    0.100     77.00        0.375 0.95 1.00
            7     59       0.03 0.003     121.95    0.100     70.00        1.425 0.95 1.00
            7     60       5.18 0.492       9.15    0.100     70.00        0.088 0.95 1.00
            8     61       0.16 0.001     121.95    0.100     70.00        1.982 0.95 1.00
            8     62       0.09 0.022      91.46    0.100     70.00        0.660 0.95 1.00
            8     63       4.89 0.452       9.15    0.100     70.00        0.093 0.95 1.00
            9     64       0.02 0.023      91.46    0.100     70.00        0.651 0.95 1.00
            9     65       0.42 0.107      60.98    0.100     70.00        0.324 0.95 1.00
            9     66       0.01 0.000     121.95    0.100     70.00        3.952 0.95 1.00
            9     67       0.01 0.022      91.46    0.100     70.00        0.659 0.95 1.00
            9     68      21.25 0.424       9.15    0.100     70.00        0.131 0.95 1.00
            9     69       0.01 0.002     121.95    0.100     70.00        1.609 0.95 1.00
            9     70       0.04 0.022      91.46    0.100     70.00        0.660 0.95 1.00
            9     71       0.19 0.331       9.15    0.100     70.00        0.074 0.95 1.00
            9     72       0.01 0.025      91.46    0.100     70.00        0.635 0.95 1.00
            9     73       0.18 0.072      60.98    0.100     70.00        0.363 0.95 1.00
            9     74       0.14 0.257       9.15    0.100     70.00        0.080 0.95 1.00
           10     75       0.02 0.008     121.95    0.100     70.00        1.062 0.95 1.00
           10     76       0.07 0.022      91.46    0.100     70.00        0.660 0.95 1.00
           10     77       1.08 0.102      60.98    0.100     70.00        0.332 0.95 1.00
           10     78       4.76 0.462       9.15    0.100     70.00        0.087 0.95 1.00
           10     79       0.11 0.142      24.39    0.100     77.00        0.171 0.95 1.00
           10     80       0.07 0.122      24.39    0.100     77.00        0.179 0.95 1.00
           10     81       0.01 0.030      91.46    0.100     77.00        0.601 0.95 1.00
           10     82       0.33 0.117      60.98    0.100     77.00        0.315 0.95 1.00
           10     83       0.09 0.169      18.29    0.100     77.00        0.137 0.95 1.00
           10     84       0.43 0.123      24.39    0.100     77.00        0.181 0.95 1.00
           11     85       0.01 0.025      91.46    0.100     55.00        0.635 0.95 1.00
           11     86       1.56 0.364       9.15    0.100     55.00        0.079 0.95 1.00
           11     87       0.01 0.009     121.95    0.100     70.00        1.025 0.95 1.00
           11     88       0.09 0.020     121.95    0.100     70.00        0.807 0.95 1.00
           11     89       2.16 0.118      60.98    0.100     70.00        0.322 0.95 1.00
           11     90       8.35 0.499       9.15    0.100     70.00        0.096 0.95 1.00
           11     91       0.23 0.173      18.29    0.100     70.00        0.137 0.95 1.00
           11     92       0.07 0.260       9.15    0.100     70.00        0.079 0.95 1.00
           11     93       0.07 0.141      24.39    0.100     70.00        0.171 0.95 1.00
           11     94       0.01 0.368       9.15    0.100     70.00        0.071 0.95 1.00
           11     95       0.10 0.125      24.39    0.140     77.00        0.217 0.95 1.00

         HRU CN Input Summary Table:
          Sub   HRU   Area(ha)  LULC      Soil    CN1    CN2    CN3  Wilting Point (mm H2O)  Field Capacity (mm H2O)  Saturation (mm H2O)
            1      1       0.37  FRSE  OLOAVA     35.3   55.0   74.5                    84.5                    149.8                902.5
            1      2       7.03  FRSE  OLOAVA     35.3   55.0   74.5                    84.5                    149.8                902.5
            1      3       0.04  FRSE  FAGASA     51.2   70.0   85.7                   132.2                     97.2                365.5
            1      4       0.01  FRSE  FAGASA     51.2   70.0   85.7                   132.2                     97.2                365.5
            1      5      28.41  FRSE  FAGASA     51.2   70.0   85.7                   132.2                     97.2                365.5
            2      6       0.02  FRSE  OLOAVA     51.2   70.0   85.7                    84.5                    149.8                902.5
            2      7       0.45  FRSE  OLOAVA     51.2   70.0   85.7                    84.5                    149.8                902.5
            2      8       0.09  FRSE  OLOAVA     51.2   70.0   85.7                    84.5                    149.8                902.5
            2      9       0.68  FRSE  OLOAVA     51.2   70.0   85.7                    84.5                    149.8                902.5
            2     10       0.02  AGRL  OLOAVA     59.3   77.0   89.9                    84.5                    149.8                902.5
            2     11       0.02  AGRL  OLOAVA     59.3   77.0   89.9                    84.5                    149.8                902.5
            2     12       4.33  AGRL  OLOAVA     59.3   77.0   89.9                    84.5                    149.8                902.5
            2     13       0.30  AGRL  FAGASA     67.0   83.0   93.1                   132.2                     97.2                365.5
            2     14       2.27  SWCH  OLOAVA     39.4   59.0   77.7                    84.5                    149.8                902.5
            2     15       0.01  SWCH  FAGASA     53.4   72.0   86.9                   132.2                     97.2                365.5
            2     16       0.02  FRSE  OLOAVA     35.3   55.0   74.5                    84.5                    149.8                902.5
            2     17       0.06  FRSE  OLOAVA     35.3   55.0   74.5                    84.5                    149.8                902.5
            2     18       5.58  FRSE  OLOAVA     35.3   55.0   74.5                    84.5                    149.8                902.5
            2     19      17.89  FRSE  FAGASA     51.2   70.0   85.7                   132.2                     97.2                365.5
            2     20       0.56  FRSD  OLOAVA     46.8   66.0   83.0                    84.5                    149.8                902.5
            2     21       0.46  FRSD  FAGASA     59.3   77.0   89.9                   132.2                     97.2                365.5
            2     22       0.23  BARR  OLOAVA     71.4   86.0   94.5                    84.5                    149.8                902.5
            3     23       0.04  BARR  OLOAVA     71.4   86.0   94.5                    84.5                    149.8                902.5
            3     24       0.68  BARR  OLOAVA     71.4   86.0   94.5                    84.5                    149.8                902.5
            3     25       0.01  BARR  FAGASA     71.4   86.0   94.5                   132.2                     97.2                365.5
            3     26       0.06  BARR  OLOAVA     71.4   86.0   94.5                    84.5                    149.8                902.5
            3     27       0.95  BARR  OLOAVA     71.4   86.0   94.5                    84.5                    149.8                902.5
            3     28       6.01  AGRL  OLOAVA     59.3   77.0   89.9                    84.5                    149.8                902.5
            3     29       3.25  AGRL  FAGASA     67.0   83.0   93.1                   132.2                     97.2                365.5
            3     30       0.12  SWCH  OLOAVA     39.4   59.0   77.7                    84.5                    149.8                902.5
            3     31       4.44  SWCH  OLOAVA     39.4   59.0   77.7                    84.5                    149.8                902.5
            3     32       0.02  FRSE  OLOAVA     35.3   55.0   74.5                    84.5                    149.8                902.5
            3     33       7.11  FRSE  OLOAVA     35.3   55.0   74.5                    84.5                    149.8                902.5
            3     34      25.15  FRSE  FAGASA     51.2   70.0   85.7                   132.2                     97.2                365.5
            3     35       0.01  FRSD  OLOAVA     46.8   66.0   83.0                    84.5                    149.8                902.5
            3     36       1.19  FRSD  OLOAVA     46.8   66.0   83.0                    84.5                    149.8                902.5
            3     37       0.39  FRSD  FAGASA     59.3   77.0   89.9                   132.2                     97.2                365.5
            3     38       0.01  BARR  OLOAVA     71.4   86.0   94.5                    84.5                    149.8                902.5
            3     39       0.30  BARR  OLOAVA     71.4   86.0   94.5                    84.5                    149.8                902.5
            4     40      34.61  FRSE  FAGASA     51.2   70.0   85.7                   132.2                     97.2                365.5
            5     41       0.01  FRSE  LEAFU      51.2   70.0   85.7                   306.0                    196.5                669.1
            5     42       0.05  FRSE  LEAFU      51.2   70.0   85.7                   306.0                    196.5                669.1
            5     43       0.24  FRSE  LEAFU      51.2   70.0   85.7                   306.0                    196.5                669.1
            5     44      24.46  FRSE  FAGASA     51.2   70.0   85.7                   132.2                     97.2                365.5
            5     45       0.01  FRSD  LEAFU      59.3   77.0   89.9                   306.0                    196.5                669.1
            5     46       0.02  FRSD  FAGASA     59.3   77.0   89.9                   132.2                     97.2                365.5
            6     47       0.22  SWCH  OLOAVA     39.4   59.0   77.7                    84.5                    149.8                902.5
            6     48       0.40  SWCH  FAGASA     53.4   72.0   86.9                   132.2                     97.2                365.5
            6     49       1.96  FRSE  OLOAVA     35.3   55.0   74.5                    84.5                    149.8                902.5
            6     50       0.19  FRSE  LEAFU      51.2   70.0   85.7                   306.0                    196.5                669.1
            6     51       0.03  FRSE  FAGASA     51.2   70.0   85.7                   132.2                     97.2                365.5
            6     52       0.03  FRSE  FAGASA     51.2   70.0   85.7                   132.2                     97.2                365.5
            6     53      18.03  FRSE  FAGASA     51.2   70.0   85.7                   132.2                     97.2                365.5
            6     54       0.46  FRSD  OLOAVA     46.8   66.0   83.0                    84.5                    149.8                902.5
            6     55       0.07  FRSD  FAGASA     59.3   77.0   89.9                   132.2                     97.2                365.5
            6     56       0.08  FRSD  LEAFU      59.3   77.0   89.9                   306.0                    196.5                669.1
            6     57       0.01  FRSD  FAGASA     59.3   77.0   89.9                   132.2                     97.2                365.5
            6     58       0.03  FRSD  LEAFU      59.3   77.0   89.9                   306.0                    196.5                669.1
            7     59       0.03  FRSE  FAGASA     51.2   70.0   85.7                   132.2                     97.2                365.5
            7     60       5.18  FRSE  FAGASA     51.2   70.0   85.7                   132.2                     97.2                365.5
            8     61       0.16  FRSE  FAGASA     51.2   70.0   85.7                   132.2                     97.2                365.5
            8     62       0.09  FRSE  FAGASA     51.2   70.0   85.7                   132.2                     97.2                365.5
            8     63       4.89  FRSE  FAGASA     51.2   70.0   85.7                   132.2                     97.2                365.5
            9     64       0.02  FRSE  LEAFU      51.2   70.0   85.7                   306.0                    196.5                669.1
            9     65       0.42  FRSE  LEAFU      51.2   70.0   85.7                   306.0                    196.5                669.1
            9     66       0.01  FRSE  FAGASA     51.2   70.0   85.7                   132.2                     97.2                365.5
            9     67       0.01  FRSE  FAGASA     51.2   70.0   85.7                   132.2                     97.2                365.5
            9     68      21.25  FRSE  FAGASA     51.2   70.0   85.7                   132.2                     97.2                365.5
            9     69       0.01  FRSE  LEAFU      51.2   70.0   85.7                   306.0                    196.5                669.1
            9     70       0.04  FRSE  LEAFU      51.2   70.0   85.7                   306.0                    196.5                669.1
            9     71       0.19  FRSE  FAGASA     51.2   70.0   85.7                   132.2                     97.2                365.5
            9     72       0.01  FRSE  LEAFU      51.2   70.0   85.7                   306.0                    196.5                669.1
            9     73       0.18  FRSE  LEAFU      51.2   70.0   85.7                   306.0                    196.5                669.1
            9     74       0.14  FRSE  FAGASA     51.2   70.0   85.7                   132.2                     97.2                365.5
           10     75       0.02  FRSE  LEAFU      51.2   70.0   85.7                   306.0                    196.5                669.1
           10     76       0.07  FRSE  LEAFU      51.2   70.0   85.7                   306.0                    196.5                669.1
           10     77       1.08  FRSE  LEAFU      51.2   70.0   85.7                   306.0                    196.5                669.1
           10     78       4.76  FRSE  FAGASA     51.2   70.0   85.7                   132.2                     97.2                365.5
           10     79       0.11  FRSD  LEAFU      59.3   77.0   89.9                   306.0                    196.5                669.1
           10     80       0.07  FRSD  FAGASA     59.3   77.0   89.9                   132.2                     97.2                365.5
           10     81       0.01  FRSD  LEAFU      59.3   77.0   89.9                   306.0                    196.5                669.1
           10     82       0.33  FRSD  LEAFU      59.3   77.0   89.9                   306.0                    196.5                669.1
           10     83       0.09  FRSD  FAGASA     59.3   77.0   89.9                   132.2                     97.2                365.5
           10     84       0.43  FRSD  LEAFU      59.3   77.0   89.9                   306.0                    196.5                669.1
           11     85       0.01  FRSE  OLOAVA     35.3   55.0   74.5                    84.5                    149.8                902.5
           11     86       1.56  FRSE  OLOAVA     35.3   55.0   74.5                    84.5                    149.8                902.5
           11     87       0.01  FRSE  LEAFU      51.2   70.0   85.7                   306.0                    196.5                669.1
           11     88       0.09  FRSE  LEAFU      51.2   70.0   85.7                   306.0                    196.5                669.1
           11     89       2.16  FRSE  LEAFU      51.2   70.0   85.7                   306.0                    196.5                669.1
           11     90       8.35  FRSE  FAGASA     51.2   70.0   85.7                   132.2                     97.2                365.5
           11     91       0.23  FRSE  LEAFU      51.2   70.0   85.7                   306.0                    196.5                669.1
           11     92       0.07  FRSE  FAGASA     51.2   70.0   85.7                   132.2                     97.2                365.5
           11     93       0.07  FRSE  LEAFU      51.2   70.0   85.7                   306.0                    196.5                669.1
           11     94       0.01  FRSE  FAGASA     51.2   70.0   85.7                   132.2                     97.2                365.5
           11     95       0.10  AGRL  OLOAVA     59.3   77.0   89.9                    84.5                    149.8                902.5

         HRU Input Summary Table 2:
          Sub   HRU   Area(ha)         SoilName Hydgrp MaxRtDpth(mm) Albedo USLE_K USLE_P USLE_LS ProfileAWC(mm) IniSoilH2O(mm)
            1      1       0.37 OLOAVA             B          1520.00   0.16   0.10   1.00    0.33    149.800        109.780
            1      2       7.03 OLOAVA             B          1520.00   0.16   0.10   1.00    3.06    149.800        109.780
            1      3       0.04 FAGASA             C           840.00   0.16   0.10   1.00    0.09     97.200         71.232
            1      4       0.01 FAGASA             C           840.00   0.16   0.10   1.00    0.31     97.200         71.232
            1      5      28.41 FAGASA             C           840.00   0.16   0.10   1.00    7.80     97.200         71.232
            2      6       0.02 OLOAVA             B          1520.00   0.16   0.10   1.00    0.29    149.800        109.780
            2      7       0.45 OLOAVA             B          1520.00   0.16   0.10   1.00    2.55    149.800        109.780
            2      8       0.09 OLOAVA             B          1520.00   0.16   0.10   1.00    0.33    149.800        109.780
            2      9       0.68 OLOAVA             B          1520.00   0.16   0.10   1.00    2.17    149.800        109.780
            2     10       0.02 OLOAVA             B          1520.00   0.16   0.10   1.00    0.07    149.800        109.780
            2     11       0.02 OLOAVA             B          1520.00   0.16   0.10   1.00    0.31    149.800        109.780
            2     12       4.33 OLOAVA             B          1520.00   0.16   0.10   1.00    2.97    149.800        109.780
            2     13       0.30 FAGASA             C           840.00   0.16   0.10   1.00    4.61     97.200         71.232
            2     14       2.27 OLOAVA             B          1520.00   0.16   0.10   1.00    3.40    149.800        109.780
            2     15       0.01 FAGASA             C           840.00   0.16   0.10   1.00    5.36     97.200         71.232
            2     16       0.02 OLOAVA             B          1520.00   0.16   0.10   1.00    0.07    149.800        109.780
            2     17       0.06 OLOAVA             B          1520.00   0.16   0.10   1.00    0.35    149.800        109.780
            2     18       5.58 OLOAVA             B          1520.00   0.16   0.10   1.00    3.11    149.800        109.780
            2     19      17.89 FAGASA             C           840.00   0.16   0.10   1.00    9.28     97.200         71.232
            2     20       0.56 OLOAVA             B          1520.00   0.16   0.10   1.00    3.83    149.800        109.780
            2     21       0.46 FAGASA             C           840.00   0.16   0.10   1.00    7.57     97.200         71.232
            2     22       0.23 OLOAVA             B           100.00   0.16   0.10   1.00    2.54    149.800        109.780
            3     23       0.04 OLOAVA             B           100.00   0.16   0.10   1.00    0.31    149.800        109.780
            3     24       0.68 OLOAVA             B           100.00   0.16   0.10   1.00    1.13    149.800        109.780
            3     25       0.01 FAGASA             C           100.00   0.16   0.10   1.00    6.34     97.200         71.232
            3     26       0.06 OLOAVA             B           100.00   0.16   0.10   1.00    0.38    149.800        109.780
            3     27       0.95 OLOAVA             B           100.00   0.16   0.10   1.00    1.13    149.800        109.780
            3     28       6.01 OLOAVA             B          1520.00   0.16   0.10   1.00    2.19    149.800        109.780
            3     29       3.25 FAGASA             C           840.00   0.16   0.10   1.00    6.27     97.200         71.232
            3     30       0.12 OLOAVA             B          1520.00   0.16   0.10   1.00    0.38    149.800        109.780
            3     31       4.44 OLOAVA             B          1520.00   0.16   0.10   1.00    1.78    149.800        109.780
            3     32       0.02 OLOAVA             B          1520.00   0.16   0.10   1.00    0.44    149.800        109.780
            3     33       7.11 OLOAVA             B          1520.00   0.16   0.10   1.00    2.29    149.800        109.780
            3     34      25.15 FAGASA             C           840.00   0.16   0.10   1.00    7.78     97.200         71.232
            3     35       0.01 OLOAVA             B          1520.00   0.16   0.10   1.00    0.42    149.800        109.780
            3     36       1.19 OLOAVA             B          1520.00   0.16   0.10   1.00    1.18    149.800        109.780
            3     37       0.39 FAGASA             C           840.00   0.16   0.10   1.00    7.88     97.200         71.232
            3     38       0.01 OLOAVA             B           100.00   0.16   0.10   1.00    0.44    149.800        109.780
            3     39       0.30 OLOAVA             B           100.00   0.16   0.10   1.00    2.31    149.800        109.780
            4     40      34.61 FAGASA             C           840.00   0.16   0.10   1.00    5.80     97.200         71.232
            5     41       0.01 LEAFU              C          1520.00   0.16   0.17   1.00    0.14    196.500        144.004
            5     42       0.05 LEAFU              C          1520.00   0.16   0.17   1.00    0.36    196.500        144.004
            5     43       0.24 LEAFU              C          1520.00   0.16   0.17   1.00    1.95    196.500        144.004
            5     44      24.46 FAGASA             C           840.00   0.16   0.10   1.00    7.41     97.200         71.232
            5     45       0.01 LEAFU              C          1520.00   0.16   0.17   1.00    2.55    196.500        144.004
            5     46       0.02 FAGASA             C           840.00   0.16   0.10   1.00    2.11     97.200         71.232
            6     47       0.22 OLOAVA             B          1520.00   0.16   0.10   1.00    3.11    149.800        109.780
            6     48       0.40 FAGASA             C           840.00   0.16   0.10   1.00    5.78     97.200         71.232
            6     49       1.96 OLOAVA             B          1520.00   0.16   0.10   1.00   10.35    149.800        109.780
            6     50       0.19 LEAFU              C          1520.00   0.16   0.17   1.00    1.56    196.500        144.004
            6     51       0.03 FAGASA             C           840.00   0.16   0.10   1.00    0.11     97.200         71.232
            6     52       0.03 FAGASA             C           840.00   0.16   0.10   1.00    0.31     97.200         71.232
            6     53      18.03 FAGASA             C           840.00   0.16   0.10   1.00    7.23     97.200         71.232
            6     54       0.46 OLOAVA             B          1520.00   0.16   0.10   1.00    6.55    149.800        109.780
            6     55       0.07 FAGASA             C           840.00   0.16   0.10   1.00    8.38     97.200         71.232
            6     56       0.08 LEAFU              C          1520.00   0.16   0.17   1.00    2.27    196.500        144.004
            6     57       0.01 FAGASA             C           840.00   0.16   0.10   1.00    3.08     97.200         71.232
            6     58       0.03 LEAFU              C          1520.00   0.16   0.17   1.00    1.08    196.500        144.004
            7     59       0.03 FAGASA             C           840.00   0.16   0.10   1.00    0.09     97.200         71.232
            7     60       5.18 FAGASA             C           840.00   0.16   0.10   1.00    8.73     97.200         71.232
            8     61       0.16 FAGASA             C           840.00   0.16   0.10   1.00    0.07     97.200         71.232
            8     62       0.09 FAGASA             C           840.00   0.16   0.10   1.00    0.31     97.200         71.232
            8     63       4.89 FAGASA             C           840.00   0.16   0.10   1.00    7.67     97.200         71.232
            9     64       0.02 LEAFU              C          1520.00   0.16   0.17   1.00    0.33    196.500        144.004
            9     65       0.42 LEAFU              C          1520.00   0.16   0.17   1.00    2.34    196.500        144.004
            9     66       0.01 FAGASA             C           840.00   0.16   0.10   1.00    0.07     97.200         71.232
            9     67       0.01 FAGASA             C           840.00   0.16   0.10   1.00    0.31     97.200         71.232
            9     68      21.25 FAGASA             C           840.00   0.16   0.10   1.00    6.95     97.200         71.232
            9     69       0.01 LEAFU              C          1520.00   0.16   0.17   1.00    0.08    196.500        144.004
            9     70       0.04 LEAFU              C          1520.00   0.16   0.17   1.00    0.31    196.500        144.004
            9     71       0.19 FAGASA             C           840.00   0.16   0.10   1.00    4.68     97.200         71.232
            9     72       0.01 LEAFU              C          1520.00   0.16   0.17   1.00    0.36    196.500        144.004
            9     73       0.18 LEAFU              C          1520.00   0.16   0.17   1.00    1.28    196.500        144.004
            9     74       0.14 FAGASA             C           840.00   0.16   0.10   1.00    3.09     97.200         71.232
           10     75       0.02 LEAFU              C          1520.00   0.16   0.17   1.00    0.14    196.500        144.004
           10     76       0.07 LEAFU              C          1520.00   0.16   0.17   1.00    0.31    196.500        144.004
           10     77       1.08 LEAFU              C          1520.00   0.16   0.17   1.00    2.17    196.500        144.004
           10     78       4.76 FAGASA             C           840.00   0.16   0.10   1.00    7.94     97.200         71.232
           10     79       0.11 LEAFU              C          1520.00   0.16   0.17   1.00    2.12    196.500        144.004
           10     80       0.07 FAGASA             C           840.00   0.16   0.10   1.00    1.67     97.200         71.232
           10     81       0.01 LEAFU              C          1520.00   0.16   0.17   1.00    0.46    196.500        144.004
           10     82       0.33 LEAFU              C          1520.00   0.16   0.17   1.00    2.69    196.500        144.004
           10     83       0.09 FAGASA             C           840.00   0.16   0.10   1.00    2.36     97.200         71.232
           10     84       0.43 LEAFU              C          1520.00   0.16   0.17   1.00    1.69    196.500        144.004
           11     85       0.01 OLOAVA             B          1520.00   0.16   0.10   1.00    0.36    149.800        109.780
           11     86       1.56 OLOAVA             B          1520.00   0.16   0.10   1.00    5.46    149.800        109.780
           11     87       0.01 LEAFU              C          1520.00   0.16   0.17   1.00    0.15    196.500        144.004
           11     88       0.09 LEAFU              C          1520.00   0.16   0.17   1.00    0.31    196.500        144.004
           11     89       2.16 LEAFU              C          1520.00   0.16   0.17   1.00    2.73    196.500        144.004
           11     90       8.35 FAGASA             C           840.00   0.16   0.10   1.00    8.91     97.200         71.232
           11     91       0.23 LEAFU              C          1520.00   0.16   0.17   1.00    2.45    196.500        144.004
           11     92       0.07 FAGASA             C           840.00   0.16   0.10   1.00    3.15     97.200         71.232
           11     93       0.07 LEAFU              C          1520.00   0.16   0.17   1.00    2.09    196.500        144.004
           11     94       0.01 FAGASA             C           840.00   0.16   0.10   1.00    5.56     97.200         71.232
           11     95       0.10 OLOAVA             B          1520.00   0.16   0.10   1.00    1.73    149.800        109.780

         HRU Input Summary Table 3:
          Sub   HRU   Area(ha) Urban Irrig DrainTiles Pothole Pstcide Biomix Septic
            1      1       0.37                                          0.20 x
            1      2       7.03                                          0.20 x
            1      3       0.04                                          0.20 x
            1      4       0.01                                          0.20 x
            1      5      28.41                                          0.20 x
            2      6       0.02                                          0.20 x
            2      7       0.45                                          0.20 x
            2      8       0.09                                          0.20 x
            2      9       0.68                                          0.20 x
            2     10       0.02                                          0.20 x
            2     11       0.02                                          0.20 x
            2     12       4.33                                          0.20 x
            2     13       0.30                                          0.20 x
            2     14       2.27                                          0.20 x
            2     15       0.01                                          0.20 x
            2     16       0.02                                          0.20 x
            2     17       0.06                                          0.20 x
            2     18       5.58                                          0.20 x
            2     19      17.89                                          0.20 x
            2     20       0.56                                          0.20 x
            2     21       0.46                                          0.20 x
            2     22       0.23                                          0.20 x
            3     23       0.04                                          0.20 x
            3     24       0.68                                          0.20 x
            3     25       0.01                                          0.20 x
            3     26       0.06                                          0.20 x
            3     27       0.95                                          0.20 x
            3     28       6.01                                          0.20 x
            3     29       3.25                                          0.20 x
            3     30       0.12                                          0.20 x
            3     31       4.44                                          0.20 x
            3     32       0.02                                          0.20 x
            3     33       7.11                                          0.20 x
            3     34      25.15                                          0.20 x
            3     35       0.01                                          0.20 x
            3     36       1.19                                          0.20 x
            3     37       0.39                                          0.20 x
            3     38       0.01                                          0.20 x
            3     39       0.30                                          0.20 x
            4     40      34.61                                          0.20 x
            5     41       0.01                                          0.20 x
            5     42       0.05                                          0.20 x
            5     43       0.24                                          0.20 x
            5     44      24.46                                          0.20 x
            5     45       0.01                                          0.20 x
            5     46       0.02                                          0.20 x
            6     47       0.22                                          0.20 x
            6     48       0.40                                          0.20 x
            6     49       1.96                                          0.20 x
            6     50       0.19                                          0.20 x
            6     51       0.03                                          0.20 x
            6     52       0.03                                          0.20 x
            6     53      18.03                                          0.20 x
            6     54       0.46                                          0.20 x
            6     55       0.07                                          0.20 x
            6     56       0.08                                          0.20 x
            6     57       0.01                                          0.20 x
            6     58       0.03                                          0.20 x
            7     59       0.03                                          0.20 x
            7     60       5.18                                          0.20 x
            8     61       0.16                                          0.20 x
            8     62       0.09                                          0.20 x
            8     63       4.89                                          0.20 x
            9     64       0.02                                          0.20 x
            9     65       0.42                                          0.20 x
            9     66       0.01                                          0.20 x
            9     67       0.01                                          0.20 x
            9     68      21.25                                          0.20 x
            9     69       0.01                                          0.20 x
            9     70       0.04                                          0.20 x
            9     71       0.19                                          0.20 x
            9     72       0.01                                          0.20 x
            9     73       0.18                                          0.20 x
            9     74       0.14                                          0.20 x
           10     75       0.02                                          0.20 x
           10     76       0.07                                          0.20 x
           10     77       1.08                                          0.20 x
           10     78       4.76                                          0.20 x
           10     79       0.11                                          0.20 x
           10     80       0.07                                          0.20 x
           10     81       0.01                                          0.20 x
           10     82       0.33                                          0.20 x
           10     83       0.09                                          0.20 x
           10     84       0.43                                          0.20 x
           11     85       0.01                                          0.20 x
           11     86       1.56                                          0.20 x
           11     87       0.01                                          0.20 x
           11     88       0.09                                          0.20 x
           11     89       2.16                                          0.20 x
           11     90       8.35                                          0.20 x
           11     91       0.23                                          0.20 x
           11     92       0.07                                          0.20 x
           11     93       0.07                                          0.20 x
           11     94       0.01                                          0.20 x
           11     95       0.10                                          0.20 x

         HRU Input Summary Table 4 (Groundwater):
          Sub   HRU   Area(ha) GWdelay(days), GWalpha(days) GWQmin(mm) GWrevap Revapmin(mm) Deepfr NO3(ppm) SolP(ppm)
            1      1       0.37        31.000         0.048   1000.000   0.020      750.000  0.050    0.000     0.000
            1      2       7.03        31.000         0.048   1000.000   0.020      750.000  0.050    0.000     0.000
            1      3       0.04        31.000         0.048   1000.000   0.020      750.000  0.050    0.000     0.000
            1      4       0.01        31.000         0.048   1000.000   0.020      750.000  0.050    0.000     0.000
            1      5      28.41        31.000         0.048   1000.000   0.020      750.000  0.050    0.000     0.000
            2      6       0.02        31.000         0.048   1000.000   0.020      750.000  0.050    0.000     0.000
            2      7       0.45        31.000         0.048   1000.000   0.020      750.000  0.050    0.000     0.000
            2      8       0.09        31.000         0.048   1000.000   0.020      750.000  0.050    0.000     0.000
            2      9       0.68        31.000         0.048   1000.000   0.020      750.000  0.050    0.000     0.000
            2     10       0.02        31.000         0.048   1000.000   0.020      750.000  0.050    0.000     0.000
            2     11       0.02        31.000         0.048   1000.000   0.020      750.000  0.050    0.000     0.000
            2     12       4.33        31.000         0.048   1000.000   0.020      750.000  0.050    0.000     0.000
            2     13       0.30        31.000         0.048   1000.000   0.020      750.000  0.050    0.000     0.000
            2     14       2.27        31.000         0.048   1000.000   0.020      750.000  0.050    0.000     0.000
            2     15       0.01        31.000         0.048   1000.000   0.020      750.000  0.050    0.000     0.000
            2     16       0.02        31.000         0.048   1000.000   0.020      750.000  0.050    0.000     0.000
            2     17       0.06        31.000         0.048   1000.000   0.020      750.000  0.050    0.000     0.000
            2     18       5.58        31.000         0.048   1000.000   0.020      750.000  0.050    0.000     0.000
            2     19      17.89        31.000         0.048   1000.000   0.020      750.000  0.050    0.000     0.000
            2     20       0.56        31.000         0.048   1000.000   0.020      750.000  0.050    0.000     0.000
            2     21       0.46        31.000         0.048   1000.000   0.020      750.000  0.050    0.000     0.000
            2     22       0.23        31.000         0.048   1000.000   0.020      750.000  0.050    0.000     0.000
            3     23       0.04        31.000         0.048   1000.000   0.020      750.000  0.050    0.000     0.000
            3     24       0.68        31.000         0.048   1000.000   0.020      750.000  0.050    0.000     0.000
            3     25       0.01        31.000         0.048   1000.000   0.020      750.000  0.050    0.000     0.000
            3     26       0.06        31.000         0.048   1000.000   0.020      750.000  0.050    0.000     0.000
            3     27       0.95        31.000         0.048   1000.000   0.020      750.000  0.050    0.000     0.000
            3     28       6.01        31.000         0.048   1000.000   0.020      750.000  0.050    0.000     0.000
            3     29       3.25        31.000         0.048   1000.000   0.020      750.000  0.050    0.000     0.000
            3     30       0.12        31.000         0.048   1000.000   0.020      750.000  0.050    0.000     0.000
            3     31       4.44        31.000         0.048   1000.000   0.020      750.000  0.050    0.000     0.000
            3     32       0.02        31.000         0.048   1000.000   0.020      750.000  0.050    0.000     0.000
            3     33       7.11        31.000         0.048   1000.000   0.020      750.000  0.050    0.000     0.000
            3     34      25.15        31.000         0.048   1000.000   0.020      750.000  0.050    0.000     0.000
            3     35       0.01        31.000         0.048   1000.000   0.020      750.000  0.050    0.000     0.000
            3     36       1.19        31.000         0.048   1000.000   0.020      750.000  0.050    0.000     0.000
            3     37       0.39        31.000         0.048   1000.000   0.020      750.000  0.050    0.000     0.000
            3     38       0.01        31.000         0.048   1000.000   0.020      750.000  0.050    0.000     0.000
            3     39       0.30        31.000         0.048   1000.000   0.020      750.000  0.050    0.000     0.000
            4     40      34.61        31.000         0.048   1000.000   0.020      750.000  0.050    0.000     0.000
            5     41       0.01        31.000         0.048   1000.000   0.020      750.000  0.050    0.000     0.000
            5     42       0.05        31.000         0.048   1000.000   0.020      750.000  0.050    0.000     0.000
            5     43       0.24        31.000         0.048   1000.000   0.020      750.000  0.050    0.000     0.000
            5     44      24.46        31.000         0.048   1000.000   0.020      750.000  0.050    0.000     0.000
            5     45       0.01        31.000         0.048   1000.000   0.020      750.000  0.050    0.000     0.000
            5     46       0.02        31.000         0.048   1000.000   0.020      750.000  0.050    0.000     0.000
            6     47       0.22        31.000         0.048   1000.000   0.020      750.000  0.050    0.000     0.000
            6     48       0.40        31.000         0.048   1000.000   0.020      750.000  0.050    0.000     0.000
            6     49       1.96        31.000         0.048   1000.000   0.020      750.000  0.050    0.000     0.000
            6     50       0.19        31.000         0.048   1000.000   0.020      750.000  0.050    0.000     0.000
            6     51       0.03        31.000         0.048   1000.000   0.020      750.000  0.050    0.000     0.000
            6     52       0.03        31.000         0.048   1000.000   0.020      750.000  0.050    0.000     0.000
            6     53      18.03        31.000         0.048   1000.000   0.020      750.000  0.050    0.000     0.000
            6     54       0.46        31.000         0.048   1000.000   0.020      750.000  0.050    0.000     0.000
            6     55       0.07        31.000         0.048   1000.000   0.020      750.000  0.050    0.000     0.000
            6     56       0.08        31.000         0.048   1000.000   0.020      750.000  0.050    0.000     0.000
            6     57       0.01        31.000         0.048   1000.000   0.020      750.000  0.050    0.000     0.000
            6     58       0.03        31.000         0.048   1000.000   0.020      750.000  0.050    0.000     0.000
            7     59       0.03        31.000         0.048   1000.000   0.020      750.000  0.050    0.000     0.000
            7     60       5.18        31.000         0.048   1000.000   0.020      750.000  0.050    0.000     0.000
            8     61       0.16        31.000         0.048   1000.000   0.020      750.000  0.050    0.000     0.000
            8     62       0.09        31.000         0.048   1000.000   0.020      750.000  0.050    0.000     0.000
            8     63       4.89        31.000         0.048   1000.000   0.020      750.000  0.050    0.000     0.000
            9     64       0.02        31.000         0.048   1000.000   0.020      750.000  0.050    0.000     0.000
            9     65       0.42        31.000         0.048   1000.000   0.020      750.000  0.050    0.000     0.000
            9     66       0.01        31.000         0.048   1000.000   0.020      750.000  0.050    0.000     0.000
            9     67       0.01        31.000         0.048   1000.000   0.020      750.000  0.050    0.000     0.000
            9     68      21.25        31.000         0.048   1000.000   0.020      750.000  0.050    0.000     0.000
            9     69       0.01        31.000         0.048   1000.000   0.020      750.000  0.050    0.000     0.000
            9     70       0.04        31.000         0.048   1000.000   0.020      750.000  0.050    0.000     0.000
            9     71       0.19        31.000         0.048   1000.000   0.020      750.000  0.050    0.000     0.000
            9     72       0.01        31.000         0.048   1000.000   0.020      750.000  0.050    0.000     0.000
            9     73       0.18        31.000         0.048   1000.000   0.020      750.000  0.050    0.000     0.000
            9     74       0.14        31.000         0.048   1000.000   0.020      750.000  0.050    0.000     0.000
           10     75       0.02        31.000         0.048   1000.000   0.020      750.000  0.050    0.000     0.000
           10     76       0.07        31.000         0.048   1000.000   0.020      750.000  0.050    0.000     0.000
           10     77       1.08        31.000         0.048   1000.000   0.020      750.000  0.050    0.000     0.000
           10     78       4.76        31.000         0.048   1000.000   0.020      750.000  0.050    0.000     0.000
           10     79       0.11        31.000         0.048   1000.000   0.020      750.000  0.050    0.000     0.000
           10     80       0.07        31.000         0.048   1000.000   0.020      750.000  0.050    0.000     0.000
           10     81       0.01        31.000         0.048   1000.000   0.020      750.000  0.050    0.000     0.000
           10     82       0.33        31.000         0.048   1000.000   0.020      750.000  0.050    0.000     0.000
           10     83       0.09        31.000         0.048   1000.000   0.020      750.000  0.050    0.000     0.000
           10     84       0.43        31.000         0.048   1000.000   0.020      750.000  0.050    0.000     0.000
           11     85       0.01        31.000         0.048   1000.000   0.020      750.000  0.050    0.000     0.000
           11     86       1.56        31.000         0.048   1000.000   0.020      750.000  0.050    0.000     0.000
           11     87       0.01        31.000         0.048   1000.000   0.020      750.000  0.050    0.000     0.000
           11     88       0.09        31.000         0.048   1000.000   0.020      750.000  0.050    0.000     0.000
           11     89       2.16        31.000         0.048   1000.000   0.020      750.000  0.050    0.000     0.000
           11     90       8.35        31.000         0.048   1000.000   0.020      750.000  0.050    0.000     0.000
           11     91       0.23        31.000         0.048   1000.000   0.020      750.000  0.050    0.000     0.000
           11     92       0.07        31.000         0.048   1000.000   0.020      750.000  0.050    0.000     0.000
           11     93       0.07        31.000         0.048   1000.000   0.020      750.000  0.050    0.000     0.000
           11     94       0.01        31.000         0.048   1000.000   0.020      750.000  0.050    0.000     0.000
           11     95       0.10        31.000         0.048   1000.000   0.020      750.000  0.050    0.000     0.000

         Tributary/Main Channel Characteristics
              |--------------Tributary--------------------|---------------------Main---------------------------|
          Sub  Length(km) Slope Width(m) Cond(mm/hr)     N Length(km) Slope Width(m) Depth(m) Cond(mm/hr)     N
            1        1.40 0.190     0.70      0.0000 0.014       0.75 0.217     0.70     0.09      0.0000 0.014
            2        1.32 0.200     0.66      0.0000 0.014       0.50 0.269     0.66     0.08      0.0000 0.014
            3        1.47 0.186     0.85      0.0000 0.014       0.57 0.249     0.85     0.10      0.0000 0.014
            4        1.11 0.235     0.68      0.0000 0.014       0.46 0.121     0.68     0.09      0.0000 0.014
            5        1.14 0.205     0.56      0.0000 0.014       0.47 0.123     0.56     0.07      0.0000 0.014
            6        1.05 0.239     0.51      0.0000 0.014       0.17 0.140     0.51     0.07      0.0000 0.014
            7        0.42 0.316     0.22      0.0000 0.014       0.18 0.068     1.19     0.12      0.0000 0.014
            8        0.47 0.288     0.22      0.0000 0.014       0.16 0.015     1.50     0.14      0.0000 0.014
            9        1.16 0.196     0.52      0.0000 0.014       0.71 0.139     1.87     0.17      0.0000 0.014
           10        0.52 0.299     0.26      0.0000 0.014       0.16 0.044     2.04     0.18      0.0000 0.014
           11        0.83 0.258     0.37      0.0000 0.014       0.13 0.033     2.24     0.19      0.0000 0.014
