1
    SWAT Dec 23 2016    VER 2016/Rev 664                                                                 0/ 0/   0      0: 0: 0

    General Input/Output section (file.cio):                                        
    2/12/2020 14:37:37 QSWAT Workflow v1.5.2                                        
                                                                                    
         Number of years in run:    5
         Area of watershed:        2.518 km2
1
    SWAT Dec 23 2016    VER 2016/Rev 664                                            

    General Input/Output section (file.cio):                                        
    2/12/2020 14:37:37 QSWAT Workflow v1.5.2                                        
                                                                                    
Annual Summary for Watershed in year    1 of simulation

UNIT                                    PERCO    TILE                           WATER     SED     NO3     NO3     NO3     NO3        N       P       P
TIME     PREC    SURQ    LATQ     GWQ    LATE       Q     SW       ET     PET   YIELD   YIELD    SURQ    LATQ    PERC    CROP  ORGANIC SOLUBLE ORGANIC TILENO3
         (mm)    (mm)    (mm)    (mm)    (mm)    (mm)    (mm)    (mm)    (mm)    (mm)   (t/ha)  ------------------(kg nutrient/ha)-------------------- (kg/ha)
1
    SWAT Dec 23 2016    VER 2016/Rev 664                                            

    General Input/Output section (file.cio):                                        
    2/12/2020 14:37:37 QSWAT Workflow v1.5.2                                        
                                                                                    
Annual Summary for Watershed in year    2 of simulation

UNIT                                    PERCO    TILE                           WATER     SED     NO3     NO3     NO3     NO3        N       P       P
TIME     PREC    SURQ    LATQ     GWQ    LATE       Q     SW       ET     PET   YIELD   YIELD    SURQ    LATQ    PERC    CROP  ORGANIC SOLUBLE ORGANIC TILENO3
         (mm)    (mm)    (mm)    (mm)    (mm)    (mm)    (mm)    (mm)    (mm)    (mm)   (t/ha)  ------------------(kg nutrient/ha)-------------------- (kg/ha)
1
    SWAT Dec 23 2016    VER 2016/Rev 664                                            

    General Input/Output section (file.cio):                                        
    2/12/2020 14:37:37 QSWAT Workflow v1.5.2                                        
                                                                                    
Annual Summary for Watershed in year    3 of simulation

UNIT                                    PERCO    TILE                           WATER     SED     NO3     NO3     NO3     NO3        N       P       P
TIME     PREC    SURQ    LATQ     GWQ    LATE       Q     SW       ET     PET   YIELD   YIELD    SURQ    LATQ    PERC    CROP  ORGANIC SOLUBLE ORGANIC TILENO3
         (mm)    (mm)    (mm)    (mm)    (mm)    (mm)    (mm)    (mm)    (mm)    (mm)   (t/ha)  ------------------(kg nutrient/ha)-------------------- (kg/ha)
1
    SWAT Dec 23 2016    VER 2016/Rev 664                                            

    General Input/Output section (file.cio):                                        
    2/12/2020 14:37:37 QSWAT Workflow v1.5.2                                        
                                                                                    
Annual Summary for Watershed in year    4 of simulation

UNIT                                    PERCO    TILE                           WATER     SED     NO3     NO3     NO3     NO3        N       P       P
TIME     PREC    SURQ    LATQ     GWQ    LATE       Q     SW       ET     PET   YIELD   YIELD    SURQ    LATQ    PERC    CROP  ORGANIC SOLUBLE ORGANIC TILENO3
         (mm)    (mm)    (mm)    (mm)    (mm)    (mm)    (mm)    (mm)    (mm)    (mm)   (t/ha)  ------------------(kg nutrient/ha)-------------------- (kg/ha)
    1   26.90    4.28    9.94    0.47    1.29    0.00  104.17    2.29    2.33   14.72    0.29    0.00    0.02    0.02    0.00     0.67    0.00    0.08    0.00
    2    1.00    0.00    2.90    0.47    0.00    0.00  102.05    3.12    3.90    3.40    0.00    0.00    0.00    0.00    0.00     0.00    0.00    0.00    0.00
    3   15.50    0.77    6.93    0.47    0.91    0.00  103.33    3.96    4.71    8.19    0.05    0.00    0.01    0.01    0.00     0.11    0.00    0.01    0.00
    4    6.40    0.01    3.76    0.47    0.19    0.00  102.49    4.59    5.74    4.26    0.00    0.00    0.00    0.00    0.00     0.00    0.00    0.00    0.00
    5   25.70    4.14   10.90    0.47    1.66    0.00  103.89    4.61    5.74   15.52    0.51    0.00    0.02    0.02    0.00     1.01    0.00    0.12    0.00
    6    1.30    0.00    3.25    0.45    0.00    0.00  101.39    3.71    5.77    3.73    0.00    0.00    0.01    0.00    0.00     0.00    0.00    0.00    0.00
    7    0.00    0.00    1.10    0.45    0.00    0.00   99.00    2.38    5.75    1.57    0.00    0.00    0.00    0.00    0.00     0.00    0.00    0.00    0.00
    8    0.00    0.00    0.38    0.44    0.00    0.00   97.01    1.99    5.97    0.85    0.00    0.00    0.00    0.00    0.00     0.00    0.00    0.00    0.00
    9   70.90   32.49   16.61    0.45    2.77    0.00  105.44    3.71    4.27   49.54    2.98    0.00    0.03    0.04    0.00     6.48    0.00    0.79    0.00
   10   49.80   18.82   20.91    0.45    3.90    0.00  105.71    3.62    4.13   40.21    0.00    0.00    0.05    0.08    0.00     4.81    0.00    0.59    0.00
   11   53.10   21.24   23.03    0.46    4.13    0.00  107.21    2.14    2.17   44.75    2.59    0.00    0.06    0.09    0.00     4.49    0.00    0.55    0.00
   12   38.90   11.85   21.61    0.47    3.76    0.00  107.50    1.85    1.88   33.96    0.00    0.00    0.05    0.08    0.00     1.91    0.00    0.23    0.00
   13   15.00    0.85   13.80    0.48    1.79    0.00  107.47    1.88    1.90   15.17    0.03    0.00    0.03    0.04    0.00     0.06    0.00    0.01    0.00
   14   23.40    3.60   14.95    0.50    2.67    0.00  107.27    2.08    2.10   19.07    0.17    0.00    0.03    0.06    0.00     0.36    0.00    0.04    0.00
   15   17.50    1.48   12.80    0.51    2.04    0.00  106.94    2.41    2.44   14.82    0.01    0.00    0.03    0.05    0.00     0.24    0.00    0.03    0.00
   16    8.40    0.04    7.51    0.52    0.81    0.00  106.63    2.72    2.75    8.09    0.00    0.00    0.02    0.02    0.00     0.00    0.00    0.00    0.00
   17   32.30    7.87   15.32    0.54    3.18    0.00  106.49    2.86    2.94   23.75    0.42    0.00    0.03    0.07    0.00     0.78    0.00    0.10    0.00
   18    2.50    0.00    4.90    0.55    0.00    0.00  105.95    2.47    2.53    5.48    0.00    0.00    0.01    0.00    0.00     0.00    0.00    0.00    0.00
   19   10.70    0.14    6.02    0.56    0.88    0.00  107.16    2.19    2.22    6.74    0.01    0.00    0.01    0.02    0.00     0.01    0.00    0.00    0.00
   20    8.60    0.04    5.64    0.57    0.89    0.00  105.45    3.90    4.57    6.28    0.00    0.00    0.01    0.02    0.00     0.00    0.00    0.00    0.00
   21    1.80    0.00    1.94    0.58    0.00    0.00  103.66    3.30    4.44    2.55    0.00    0.00    0.00    0.00    0.00     0.00    0.00    0.00    0.00
   22    8.10    0.03    2.71    0.59    0.16    0.00  104.83    3.75    4.37    3.35    0.00    0.00    0.00    0.00    0.00     0.00    0.00    0.00    0.00
   23    0.00    0.00    0.86    0.60    0.00    0.00  102.59    2.24    4.18    1.48    0.00    0.00    0.00    0.00    0.00     0.00    0.00    0.00    0.00
   24    0.00    0.00    0.30    0.60    0.00    0.00  100.57    2.01    4.75    0.93    0.00    0.00    0.00    0.00    0.00     0.00    0.00    0.00    0.00
   25    6.60    0.01    1.49    0.61    0.00    0.00  101.41    3.71    5.38    2.13    0.00    0.00    0.00    0.00    0.00     0.00    0.00    0.00    0.00
   26    0.00    0.00    0.48    0.61    0.00    0.00   99.20    2.20    4.99    1.12    0.00    0.00    0.00    0.00    0.00     0.00    0.00    0.00    0.00
   27    8.40    0.03    2.04    0.61    0.00    0.00  101.12    3.69    5.01    2.71    0.00    0.00    0.00    0.00    0.00     0.00    0.00    0.00    0.00
   28   28.20    5.13   10.32    0.62    1.54    0.00  104.95    3.84    4.49   16.09    0.37    0.00    0.01    0.02    0.00     0.62    0.00    0.08    0.00
   29   70.90   34.72   22.10    0.62    4.55    0.00  106.28    3.07    3.25   57.44    1.96    0.00    0.04    0.09    0.00     4.17    0.00    0.51    0.00
   30    6.60    0.01    8.54    0.63    0.35    0.00  107.79    1.56    1.58    9.23    0.00    0.00    0.01    0.01    0.00     0.00    0.00    0.00    0.00
   31   38.10   11.44   17.65    0.64    3.81    0.00  108.24    1.11    1.12   29.76    1.00    0.00    0.04    0.09    0.00     1.52    0.00    0.19    0.00
    1  576.60  158.99  270.67   16.49   41.28    0.00  108.24   88.97  117.37  446.92   10.39    0.01    0.55    0.83    0.00    27.27    0.01    3.34    0.00
   32    2.50    0.00    6.02    0.65    0.18    0.00  106.34    3.01    3.15    6.71    0.00    0.00    0.01    0.00    0.00     0.00    0.00    0.00    0.00
   33    5.80    0.01    3.76    0.66    0.25    0.00  108.50    0.83    0.84    4.46    0.00    0.00    0.01    0.00    0.00     0.00    0.00    0.00    0.00
   34    8.90    0.05    5.94    0.66    1.18    0.00  105.87    3.48    3.89    6.68    0.00    0.00    0.01    0.03    0.00     0.00    0.00    0.00    0.00
   35   24.10    3.77   11.90    0.67    2.33    0.00  106.05    3.30    3.61   16.37    0.43    0.00    0.02    0.05    0.00     0.58    0.00    0.07    0.00
   36   21.30    2.67   12.71    0.68    2.11    0.00  106.93    2.42    2.45   16.09    0.00    0.00    0.02    0.04    0.00     0.29    0.00    0.04    0.00
   37    3.30    0.00    4.50    0.69    0.08    0.00  107.44    1.77    1.79    5.22    0.00    0.00    0.01    0.00    0.00     0.00    0.00    0.00    0.00
   38    7.90    0.03    5.06    0.69    0.84    0.00  105.51    3.84    4.19    5.80    0.00    0.00    0.01    0.02    0.02     0.00    0.00    0.00    0.00
   39   70.60   34.65   20.76    0.70    4.76    0.00  106.88    2.47    2.47   56.10    1.97    0.24    0.06    0.10    0.22     3.30    0.00    0.40    0.00
   40    0.30    0.00    5.90    0.71    0.00    0.00  104.67    2.51    3.56    6.67    0.00    0.00    0.02    0.00    0.32     0.00    0.00    0.00    0.00
   41    0.00    0.00    2.00    0.72    0.00    0.00  103.20    1.47    2.40    2.75    0.00    0.00    0.01    0.00    0.21     0.00    0.00    0.00    0.00
   42    0.00    0.00    0.69    0.72    0.00    0.00  101.57    1.63    2.92    1.45    0.00    0.00    0.00    0.00    0.29     0.00    0.00    0.00    0.00
   43    0.00    0.00    0.25    0.73    0.00    0.00   99.23    2.34    5.21    1.00    0.00    0.00    0.00    0.00    0.28     0.00    0.00    0.00    0.00
   44    0.00    0.00    0.09    0.73    0.00    0.00   97.02    2.20    4.78    0.85    0.00    0.00    0.00    0.00    0.52     0.00    0.00    0.00    0.00
   45    0.00    0.00    0.04    0.73    0.00    0.00   94.95    2.07    4.35    0.80    0.00    0.00    0.00    0.00    0.50     0.00    0.00    0.00    0.00
   46    0.00    0.00    0.02    0.73    0.00    0.00   93.04    1.91    3.94    0.78    0.00    0.00    0.00    0.00    0.41     0.00    0.00    0.00    0.00
   47    0.00    0.00    0.01    0.73    0.00    0.00   90.50    2.54    4.89    0.77    0.00    0.00    0.00    0.00    0.51     0.00    0.00    0.00    0.00
   48    0.00    0.00    0.01    0.73    0.00    0.00   88.85    1.65    2.55    0.77    0.00    0.00    0.00    0.00    0.32     0.00    0.00    0.00    0.00
   49    0.00    0.00    0.01    0.72    0.00    0.00   86.58    2.27    3.55    0.76    0.00    0.00    0.00    0.00    0.49     0.00    0.00    0.00    0.00
   50    0.00    0.00    0.00    0.72    0.00    0.00   84.37    2.21    3.75    0.76    0.00    0.00    0.00    0.00    0.28     0.00    0.00    0.00    0.00
   51    0.00    0.00    0.00    0.72    0.00    0.00   82.24    2.13    3.90    0.75    0.00    0.00    0.00    0.00    0.41     0.00    0.00    0.00    0.00
   52    0.00    0.00    0.00    0.71    0.00    0.00   79.48    2.75    4.82    0.75    0.00    0.00    0.00    0.00    0.43     0.00    0.00    0.00    0.00
   53    0.00    0.00    0.00    0.71    0.00    0.00   76.88    2.60    4.38    0.74    0.00    0.00    0.00    0.00    0.43     0.00    0.00    0.00    0.00
   54    0.00    0.00    0.00    0.70    0.00    0.00   74.05    2.84    4.90    0.74    0.00    0.00    0.00    0.00    0.43     0.00    0.00    0.00    0.00
   55    0.00    0.00    0.00    0.69    0.00    0.00   71.41    2.63    4.11    0.73    0.00    0.00    0.00    0.00    0.42     0.00    0.00    0.00    0.00
   56    0.00    0.00    0.00    0.69    0.00    0.00   68.43    2.98    5.15    0.72    0.00    0.00    0.00    0.00    0.37     0.00    0.00    0.00    0.00
   57    0.00    0.00    0.00    0.68    0.00    0.00   65.38    3.05    5.20    0.71    0.00    0.00    0.00    0.00    0.25     0.00    0.00    0.00    0.00
   58    0.00    0.00    0.00    0.67    0.00    0.00   62.74    2.64    4.79    0.70    0.00    0.00    0.00    0.00    0.21     0.00    0.00    0.00    0.00
   59    0.00    0.00    0.00    0.66    0.00    0.00   60.03    2.72    5.27    0.70    0.00    0.00    0.00    0.00    0.21     0.00    0.00    0.00    0.00
    2  144.70   41.17   79.69   19.60   11.73    0.00   60.03   68.28  106.83  141.32    2.40    0.24    0.18    0.25    7.52     4.17    0.00    0.51    0.00
   60    0.00    0.00    0.00    0.65    0.00    0.00   57.35    2.68    4.20    0.69    0.00    0.00    0.00    0.00    0.23     0.00    0.00    0.00    0.00
   61    0.00    0.00    0.00    0.65    0.00    0.00   54.81    2.54    3.85    0.68    0.00    0.00    0.00    0.00    0.18     0.00    0.00    0.00    0.00
   62    0.00    0.00    0.00    0.64    0.00    0.00   51.98    2.83    4.36    0.67    0.00    0.00    0.00    0.00    0.19     0.00    0.00    0.00    0.00
   63    0.00    0.00    0.00    0.63    0.00    0.00   49.54    2.44    3.41    0.66    0.00    0.00    0.00    0.00    0.24     0.00    0.00    0.00    0.00
   64    0.00    0.00    0.00    0.62    0.00    0.00   47.24    2.30    5.16    0.65    0.00    0.00    0.00    0.00    0.19     0.00    0.00    0.00    0.00
   65    0.00    0.00    0.00    0.61    0.00    0.00   45.83    1.42    3.46    0.64    0.00    0.00    0.00    0.00    0.34     0.00    0.00    0.00    0.00
   66    0.00    0.00    0.00    0.60    0.00    0.00   44.69    1.14    1.86    0.63    0.00    0.00    0.00    0.00    0.20     0.00    0.00    0.00    0.00
   67    0.00    0.00    0.00    0.59    0.00    0.00   43.86    0.83    1.12    0.62    0.00    0.00    0.00    0.00    0.11     0.00    0.00    0.00    0.00
   68    0.00    0.00    0.00    0.58    0.00    0.00   41.86    2.00    3.03    0.61    0.00    0.00    0.00    0.00    0.04     0.00    0.00    0.00    0.00
   69    0.00    0.00    0.00    0.56    0.00    0.00   39.43    2.42    4.38    0.60    0.00    0.00    0.00    0.00    0.14     0.00    0.00    0.00    0.00
   70    5.60    0.00    1.12    0.55    0.00    0.00   40.21    3.16    4.12    1.70    0.00    0.00    0.05    0.00    0.24     0.00    0.00    0.00    0.00
   71    0.00    0.00    0.35    0.54    0.00    0.00   37.53    2.68    4.32    0.93    0.00    0.00    0.01    0.00    0.41     0.00    0.00    0.00    0.00
   72    1.80    0.00    0.27    0.53    0.00    0.00   35.82    3.29    3.99    0.83    0.00    0.00    0.01    0.00    0.40     0.00    0.00    0.00    0.00
   73    0.00    0.00    0.09    0.52    0.00    0.00   33.43    2.39    3.77    0.64    0.00    0.00    0.00    0.00    0.33     0.00    0.00    0.00    0.00
   74    2.80    0.00    0.45    0.51    0.00    0.00   32.18    3.42    4.46    0.99    0.00    0.00    0.01    0.00    0.35     0.00    0.00    0.00    0.00
   75   14.20    0.06    3.54    0.48    0.00    0.00   37.34    3.94    4.56    4.11    0.00    0.01    0.01    0.00    0.44     0.00    0.00    0.00    0.00
   76    0.50    0.00    1.13    0.43    0.00    0.00   34.48    3.35    4.95    1.59    0.00    0.00    0.00    0.00    0.49     0.00    0.00    0.00    0.00
   77    0.00    0.00    0.39    0.43    0.00    0.00   31.91    2.57    3.51    0.84    0.00    0.00    0.00    0.00    0.46     0.00    0.00    0.00    0.00
   78    5.60    0.00    1.26    0.41    0.00    0.00   31.96    3.88    5.05    1.70    0.00    0.00    0.00    0.00    0.38     0.00    0.00    0.00    0.00
   79    6.40    0.00    1.77    0.40    0.00    0.00   33.18    3.14    3.72    2.21    0.00    0.00    0.00    0.00    0.42     0.00    0.00    0.00    0.00
   80   17.80    0.15    4.93    0.40    0.00    0.00   41.22    3.15    3.33    5.50    0.00    0.00    0.00    0.00    0.23     0.00    0.00    0.00    0.00
   81    2.00    0.00    1.85    0.38    0.00    0.00   38.95    3.87    4.37    2.26    0.00    0.00    0.00    0.00    0.31     0.00    0.00    0.00    0.00
   82   17.30    0.16    5.68    0.37    0.00    0.00   45.90    2.71    2.83    6.24    0.00    0.00    0.01    0.00    0.35     0.01    0.00    0.00    0.00
   83    0.00    0.00    1.81    0.37    0.00    0.00   43.73    2.17    2.72    2.20    0.00    0.00    0.00    0.00    0.19     0.00    0.00    0.00    0.00
   84    3.30    0.00    1.22    0.36    0.00    0.00   43.05    3.09    3.40    1.61    0.00    0.00    0.00    0.00    0.18     0.00    0.00    0.00    0.00
   85   11.70    0.05    3.79    0.35    0.00    0.00   45.19    4.51    4.72    4.22    0.00    0.00    0.01    0.00    0.26     0.00    0.00    0.00    0.00
   86    3.00    0.00    1.66    0.34    0.00    0.00   44.98    2.52    2.77    2.03    0.00    0.00    0.00    0.00    0.30     0.00    0.00    0.00    0.00
   87    1.00    0.00    0.60    0.33    0.00    0.00   42.88    3.03    3.44    0.96    0.00    0.00    0.00    0.00    0.13     0.00    0.00    0.00    0.00
   88    0.80    0.00    0.21    0.32    0.00    0.00   41.07    2.61    3.19    0.56    0.00    0.00    0.00    0.00    0.09     0.00    0.00    0.00    0.00
   89    0.00    0.00    0.07    0.31    0.00    0.00   38.88    2.20    2.99    0.41    0.00    0.00    0.00    0.00    0.08     0.00    0.00    0.00    0.00
   90    0.00    0.00    0.03    0.27    0.00    0.00   36.02    2.86    4.38    0.33    0.00    0.00    0.00    0.00    0.06     0.00    0.00    0.00    0.00
    3   93.80    0.44   32.19   14.73    0.00    0.00   36.02   85.16  115.41   48.29    0.01    0.01    0.12    0.00    7.96     0.01    0.00    0.00    0.00
   91    0.30    0.00    0.01    0.25    0.00    0.00   33.24    3.07    4.74    0.29    0.00    0.00    0.00    0.00    0.17     0.00    0.00    0.00    0.00
   92    0.30    0.00    0.00    0.23    0.00    0.00   31.82    1.72    3.41    0.26    0.00    0.00    0.00    0.00    0.18     0.00    0.00    0.00    0.00
   93    0.30    0.00    0.00    0.21    0.00    0.00   30.32    1.81    4.71    0.24    0.00    0.00    0.00    0.00    0.07     0.00    0.00    0.00    0.00
   94    2.50    0.00    0.35    0.20    0.00    0.00   29.87    2.42    4.20    0.59    0.00    0.00    0.00    0.00    0.17     0.00    0.00    0.00    0.00
   95    2.30    0.00    0.42    0.20    0.00    0.00   29.08    2.64    4.56    0.64    0.00    0.00    0.00    0.00    0.13     0.00    0.00    0.00    0.00
   96    4.30    0.00    0.93    0.19    0.00    0.00   28.65    3.55    5.22    1.15    0.00    0.00    0.00    0.00    0.15     0.00    0.00    0.00    0.00
   97    0.00    0.00    0.30    0.18    0.00    0.00   27.04    1.61    5.58    0.51    0.00    0.00    0.00    0.00    0.16     0.00    0.00    0.00    0.00
   98    0.00    0.00    0.10    0.17    0.00    0.00   25.81    1.23    4.32    0.30    0.00    0.00    0.00    0.00    0.15     0.00    0.00    0.00    0.00
   99    1.80    0.00    0.17    0.16    0.00    0.00   25.49    1.93    4.03    0.36    0.00    0.00    0.00    0.00    0.11     0.00    0.00    0.00    0.00
  100    0.00    0.00    0.05    0.15    0.00    0.00   24.29    1.20    4.44    0.23    0.00    0.00    0.00    0.00    0.10     0.00    0.00    0.00    0.00
  101   11.90    0.03    2.81    0.13    0.00    0.00   28.20    3.82    4.99    2.99    0.00    0.00    0.00    0.00    0.13     0.00    0.00    0.00    0.00
  102    1.80    0.00    1.06    0.13    0.00    0.00   26.92    2.83    3.71    1.21    0.00    0.00    0.00    0.00    0.14     0.00    0.00    0.00    0.00
  103    1.30    0.00    0.45    0.12    0.00    0.00   25.96    2.14    3.23    0.60    0.00    0.00    0.00    0.00    0.10     0.00    0.00    0.00    0.00
  104    2.80    0.00    0.67    0.11    0.00    0.00   26.16    1.83    2.73    0.81    0.00    0.00    0.00    0.00    0.07     0.00    0.00    0.00    0.00
  105    2.30    0.00    0.62    0.11    0.00    0.00   25.62    2.23    3.39    0.75    0.00    0.00    0.00    0.00    0.09     0.00    0.00    0.00    0.00
  106    0.00    0.00    0.20    0.11    0.00    0.00   25.09    0.53    1.46    0.33    0.00    0.00    0.00    0.00    0.11     0.00    0.00    0.00    0.00
  107    0.00    0.00    0.07    0.10    0.00    0.00   24.36    0.73    2.90    0.20    0.00    0.00    0.00    0.00    0.01     0.00    0.00    0.00    0.00
  108    0.00    0.00    0.02    0.10    0.00    0.00   24.00    0.37    1.18    0.15    0.00    0.00    0.00    0.00    0.09     0.00    0.00    0.00    0.00
  109    0.00    0.00    0.01    0.10    0.00    0.00   23.38    0.61    2.08    0.13    0.00    0.00    0.00    0.00    0.00     0.00    0.00    0.00    0.00
  110    0.30    0.00    0.00    0.09    0.00    0.00   23.03    0.65    2.25    0.12    0.00    0.00    0.00    0.00    0.05     0.00    0.00    0.00    0.00
  111    1.00    0.00    0.00    0.08    0.00    0.00   22.19    1.84    4.16    0.11    0.00    0.00    0.00    0.00    0.05     0.00    0.00    0.00    0.00
  112    1.30    0.00    0.05    0.08    0.00    0.00   21.84    1.58    3.44    0.15    0.00    0.00    0.00    0.00    0.10     0.00    0.00    0.00    0.00
  113   98.00   17.82   30.10    0.07    0.02    0.00   54.49    3.25    3.28   47.98    0.28    0.00    0.01    0.00    0.03     0.30    0.00    0.04    0.00
  114    0.80    0.00    9.33    0.06    0.00    0.00   53.57    1.71    1.88    9.45    0.00    0.00    0.00    0.00    0.12     0.00    0.00    0.00    0.00
  115    0.00    0.00    3.18    0.05    0.00    0.00   49.82    3.75    5.04    3.26    0.00    0.00    0.00    0.00    0.05     0.00    0.00    0.00    0.00
  116    0.50    0.00    1.09    0.05    0.00    0.00   47.08    3.24    4.80    1.17    0.00    0.00    0.00    0.00    0.16     0.00    0.00    0.00    0.00
  117    7.10    0.01    1.93    0.05    0.00    0.00   47.83    4.04    5.04    2.01    0.00    0.00    0.00    0.00    0.14     0.00    0.00    0.00    0.00
  118   24.90    0.46    8.95    0.05    0.07    0.00   57.01    3.04    4.24    9.48    0.01    0.00    0.00    0.00    0.14     0.01    0.00    0.00    0.00
  119    3.80    0.00    3.46    0.05    0.00    0.00   56.57    3.16    4.00    3.53    0.00    0.00    0.00    0.00    0.11     0.00    0.00    0.00    0.00
  120   69.30   17.40   26.38    0.05    1.45    0.00   67.48    2.90    3.39   43.82    0.09    0.00    0.02    0.00    0.12     0.11    0.00    0.01    0.00
    4  238.90   35.71   92.74    3.62    1.53    0.00   67.48   65.43  112.39  132.80    0.38    0.00    0.05    0.00    3.21     0.43    0.00    0.05    0.00
  121    4.60    0.00    9.01    0.05    0.08    0.00   67.79    2.60    2.88    9.11    0.00    0.00    0.01    0.00    0.10     0.00    0.00    0.00    0.00
  122    4.60    0.00    4.24    0.05    0.12    0.00   67.76    2.74    3.12    4.32    0.00    0.00    0.00    0.00    0.05     0.00    0.00    0.00    0.00
  123    4.60    0.00    2.57    0.05    0.11    0.00   67.62    2.93    3.42    2.65    0.00    0.00    0.00    0.00    0.05     0.00    0.00    0.00    0.00
  124    0.00    0.00    0.83    0.06    0.00    0.00   65.51    2.10    3.91    0.91    0.00    0.00    0.00    0.00    0.03     0.00    0.00    0.00    0.00
  125    0.00    0.00    0.29    0.05    0.00    0.00   63.38    2.13    4.99    0.37    0.00    0.00    0.00    0.00    0.00     0.00    0.00    0.00    0.00
  126    1.00    0.00    0.10    0.05    0.00    0.00   61.37    3.02    6.20    0.18    0.00    0.00    0.00    0.00    0.00     0.00    0.00    0.00    0.00
  127    2.00    0.00    0.27    0.06    0.00    0.00   60.24    2.77    5.43    0.35    0.00    0.00    0.00    0.00    0.00     0.00    0.00    0.00    0.00
  128    1.00    0.00    0.09    0.06    0.00    0.00   59.05    2.19    4.08    0.17    0.00    0.00    0.00    0.00    0.00     0.00    0.00    0.00    0.00
  129    0.00    0.00    0.03    0.06    0.00    0.00   57.49    1.56    4.94    0.11    0.00    0.00    0.00    0.00    0.00     0.00    0.00    0.00    0.00
  130    9.70    0.02    2.21    0.06    0.00    0.00   60.85    3.06    5.23    2.31    0.00    0.00    0.00    0.00    0.00     0.00    0.00    0.00    0.00
  131   33.50    2.60   13.47    0.06    0.96    0.00   70.22    1.92    2.08   16.14    0.02    0.00    0.02    0.00    0.00     0.02    0.00    0.00    0.00
  132    7.90    0.01    7.33    0.06    0.42    0.00   70.45    2.56    2.81    7.44    0.00    0.00    0.01    0.00    0.00     0.00    0.00    0.00    0.00
  133    1.80    0.00    2.55    0.07    0.00    0.00   69.21    2.74    3.35    2.63    0.00    0.00    0.00    0.00    0.00     0.00    0.00    0.00    0.00
  134    5.60    0.00    2.20    0.07    0.09    0.00   69.44    3.33    4.08    2.29    0.00    0.00    0.00    0.00    0.00     0.00    0.00    0.00    0.00
  135    0.50    0.00    0.71    0.07    0.00    0.00   67.37    2.56    4.28    0.80    0.00    0.00    0.00    0.00    0.00     0.00    0.00    0.00    0.00
  136    1.80    0.00    0.42    0.07    0.00    0.00   66.05    2.87    4.55    0.50    0.00    0.00    0.00    0.00    0.00     0.00    0.00    0.00    0.00
  137    0.00    0.00    0.14    0.07    0.00    0.00   64.27    1.78    4.55    0.23    0.00    0.00    0.00    0.00    0.00     0.00    0.00    0.00    0.00
  138    6.90    0.01    1.52    0.07    0.00    0.00   65.79    3.19    5.00    1.62    0.00    0.00    0.00    0.00    0.00     0.00    0.00    0.00    0.00
  139   11.90    0.06    4.00    0.07    0.20    0.00   69.08    3.21    3.93    4.15    0.00    0.00    0.00    0.00    0.00     0.00    0.00    0.00    0.00
  140    0.50    0.00    1.24    0.07    0.00    0.00   66.94    2.64    4.54    1.33    0.00    0.00    0.00    0.00    0.00     0.00    0.00    0.00    0.00
  141    0.00    0.00    0.42    0.07    0.00    0.00   64.82    2.11    5.22    0.52    0.00    0.00    0.00    0.00    0.00     0.00    0.00    0.00    0.00
  142    0.00    0.00    0.15    0.07    0.00    0.00   63.29    1.53    4.56    0.24    0.00    0.00    0.00    0.00    0.00     0.00    0.00    0.00    0.00
  143    5.60    0.00    1.17    0.08    0.00    0.00   64.59    2.64    4.28    1.27    0.00    0.00    0.00    0.00    0.00     0.00    0.00    0.00    0.00
  144    4.60    0.00    1.30    0.08    0.00    0.00   64.95    2.86    4.57    1.40    0.00    0.00    0.00    0.00    0.00     0.00    0.00    0.00    0.00
  145    0.00    0.00    0.42    0.08    0.00    0.00   62.92    2.03    5.39    0.52    0.00    0.00    0.00    0.00    0.00     0.00    0.00    0.00    0.00
  146    6.10    0.00    1.41    0.08    0.00    0.00   64.17    2.97    4.89    1.51    0.00    0.00    0.00    0.00    0.00     0.00    0.00    0.00    0.00
  147    1.30    0.00    0.52    0.08    0.00    0.00   62.90    2.47    4.25    0.61    0.00    0.00    0.00    0.00    0.00     0.00    0.00    0.00    0.00
  148    4.10    0.00    0.97    0.07    0.00    0.00   63.15    2.67    4.56    1.06    0.00    0.00    0.01    0.00    0.02     0.00    0.00    0.00    0.00
  149    0.80    0.00    0.31    0.07    0.00    0.00   61.54    2.41    5.15    0.40    0.00    0.00    0.00    0.00    0.00     0.00    0.00    0.00    0.00
  150   13.50    0.10    3.69    0.07    0.02    0.00   66.47    3.17    4.14    3.88    0.00    0.00    0.01    0.00    0.00     0.00    0.00    0.00    0.00
  151    0.80    0.00    1.15    0.07    0.00    0.00   65.12    2.15    3.19    1.24    0.00    0.00    0.00    0.00    0.00     0.00    0.00    0.00    0.00
    5  134.70    2.81   64.74    2.05    2.00    0.00   65.12   78.94  133.60   70.26    0.03    0.00    0.07    0.01    0.33     0.03    0.00    0.00    0.00
  152    1.80    0.00    0.58    0.07    0.00    0.00   64.28    2.36    3.46    0.67    0.00    0.00    0.00    0.00    0.00     0.00    0.00    0.00    0.00
  153    1.80    0.00    0.39    0.07    0.00    0.00   63.55    2.24    3.39    0.48    0.00    0.00    0.00    0.00    0.00     0.00    0.00    0.00    0.00
  154    0.00    0.00    0.13    0.07    0.00    0.00   61.97    1.58    4.37    0.22    0.00    0.00    0.00    0.00    0.00     0.00    0.00    0.00    0.00
  155    9.40    0.03    2.23    0.07    0.01    0.00   65.22    2.89    3.99    2.34    0.00    0.00    0.00    0.00    0.00     0.00    0.00    0.00    0.00
  156  174.20  101.29   37.67    0.07    4.00    0.00   78.24    2.47    2.78  138.93    0.86    0.01    0.11    0.02    0.00     1.01    0.01    0.13    0.00
  157    0.30    0.00   11.07    0.08    0.00    0.00   77.13    1.41    2.45   11.26    0.00    0.00    0.03    0.00    0.00     0.00    0.00    0.00    0.00
  158    1.80    0.00    3.95    0.08    0.00    0.00   77.05    1.58    1.81    4.07    0.00    0.00    0.01    0.00    0.00     0.00    0.00    0.00    0.00
  159    0.30    0.00    1.35    0.09    0.00    0.00   75.73    1.61    2.80    1.46    0.00    0.00    0.00    0.00    0.00     0.00    0.00    0.00    0.00
  160   11.70    0.07    4.50    0.09    0.56    0.00   78.50    2.48    2.79    4.68    0.00    0.00    0.01    0.00    0.00     0.00    0.00    0.00    0.00
  161    5.30    0.00    3.00    0.09    0.27    0.00   78.69    2.46    2.75    3.11    0.00    0.00    0.01    0.00    0.00     0.00    0.00    0.00    0.00
  162    0.30    0.00    0.94    0.10    0.00    0.00   77.67    1.32    2.27    1.05    0.00    0.00    0.00    0.00    0.00     0.00    0.00    0.00    0.00
  163    0.80    0.00    0.32    0.10    0.00    0.00   76.47    2.00    2.73    0.44    0.00    0.00    0.00    0.00    0.00     0.00    0.00    0.00    0.00
  164   10.70    0.05    3.71    0.10    0.49    0.00   79.01    2.40    2.66    3.89    0.00    0.00    0.01    0.00    0.00     0.00    0.00    0.00    0.00
  165    0.80    0.00    1.10    0.11    0.00    0.00   77.29    2.52    3.64    1.22    0.00    0.00    0.00    0.00    0.00     0.00    0.00    0.00    0.00
  166    1.80    0.00    0.56    0.11    0.00    0.00   76.48    2.33    3.20    0.69    0.00    0.00    0.00    0.00    0.00     0.00    0.00    0.00    0.00
  167   30.50    3.24   12.71    0.12    1.78    0.00   81.47    2.42    2.69   16.08    0.04    0.00    0.03    0.01    0.00     0.03    0.00    0.00    0.00
  168    0.80    0.00    3.72    0.12    0.00    0.00   79.78    2.49    3.56    3.86    0.00    0.00    0.01    0.00    0.00     0.00    0.00    0.00    0.00
  169    1.50    0.00    1.37    0.12    0.00    0.00   79.06    2.05    2.57    1.51    0.00    0.00    0.00    0.00    0.00     0.00    0.00    0.00    0.00
  170    0.50    0.00    0.47    0.13    0.00    0.00   78.30    1.26    2.34    0.61    0.00    0.00    0.00    0.00    0.00     0.00    0.00    0.00    0.00
  171    0.30    0.00    0.16    0.13    0.00    0.00   77.35    1.25    2.57    0.31    0.00    0.00    0.00    0.00    0.00     0.00    0.00    0.00    0.00
  172    0.00    0.00    0.06    0.13    0.00    0.00   75.90    1.45    3.73    0.21    0.00    0.00    0.00    0.00    0.00     0.00    0.00    0.00    0.00
  173    4.10    0.00    0.78    0.13    0.01    0.00   76.30    2.58    4.48    0.93    0.00    0.00    0.00    0.00    0.00     0.00    0.00    0.00    0.00
  174    6.10    0.00    1.63    0.14    0.08    0.00   77.63    2.65    3.94    1.79    0.00    0.00    0.00    0.00    0.00     0.00    0.00    0.00    0.00
  175    8.90    0.03    3.02    0.14    0.29    0.00   80.11    2.48    2.79    3.20    0.00    0.00    0.00    0.00    0.00     0.00    0.00    0.00    0.00
  176   17.30    0.40    8.51    0.14    1.24    0.00   82.92    1.90    2.08    9.06    0.01    0.00    0.02    0.01    0.00     0.01    0.00    0.00    0.00
  177    0.00    0.00    2.51    0.14    0.00    0.00   81.48    1.44    2.57    2.67    0.00    0.00    0.01    0.00    0.00     0.00    0.00    0.00    0.00
  178    0.00    0.00    0.85    0.15    0.00    0.00   80.77    0.71    1.46    1.01    0.00    0.00    0.00    0.00    0.00     0.00    0.00    0.00    0.00
  179    3.00    0.00    0.77    0.15    0.01    0.00   80.44    2.63    3.50    0.93    0.00    0.00    0.00    0.00    0.00     0.00    0.00    0.00    0.00
  180    0.30    0.00    0.25    0.15    0.00    0.00   79.23    1.51    2.97    0.42    0.00    0.00    0.00    0.00    0.00     0.00    0.00    0.00    0.00
  181    4.80    0.00    1.09    0.15    0.04    0.00   80.58    1.93    2.17    1.26    0.00    0.00    0.00    0.00    0.00     0.00    0.00    0.00    0.00
    6  299.10  105.11  109.41    3.34    8.78    0.00   80.58   60.40   88.51  218.36    0.91    0.01    0.26    0.05    0.01     1.05    0.01    0.13    0.00
  182    2.30    0.00    0.70    0.15    0.03    0.00   79.59    2.74    3.82    0.87    0.00    0.00    0.00    0.00    0.00     0.00    0.00    0.00    0.00
  183   14.00    0.15    5.43    0.15    0.81    0.00   82.21    2.91    3.44    5.76    0.00    0.00    0.01    0.01    0.00     0.01    0.00    0.00    0.00
  184    6.90    0.01    3.93    0.16    0.36    0.00   81.64    3.73    4.89    4.11    0.00    0.00    0.01    0.00    0.00     0.00    0.00    0.00    0.00
  185    0.00    0.00    1.22    0.16    0.00    0.00   79.62    2.02    4.31    1.39    0.00    0.00    0.00    0.00    0.00     0.00    0.00    0.00    0.00
  186    7.60    0.01    2.18    0.16    0.12    0.00   81.52    3.00    3.70    2.36    0.00    0.00    0.00    0.00    0.01     0.00    0.00    0.00    0.00
  187    1.50    0.00    0.80    0.16    0.00    0.00   80.06    2.78    3.88    0.98    0.00    0.00    0.00    0.00    0.01     0.00    0.00    0.00    0.00
  188    5.10    0.00    1.38    0.16    0.06    0.00   82.40    1.07    1.16    1.56    0.00    0.00    0.00    0.00    0.00     0.00    0.00    0.00    0.00
  189    0.30    0.00    0.44    0.16    0.00    0.00   81.28    1.42    1.85    0.61    0.00    0.00    0.00    0.00    0.01     0.00    0.00    0.00    0.00
  190    0.00    0.00    0.15    0.16    0.00    0.00   80.04    1.23    2.26    0.33    0.00    0.00    0.00    0.00    0.02     0.00    0.00    0.00    0.00
  191    2.80    0.00    0.52    0.16    0.00    0.00   80.09    2.07    2.39    0.69    0.00    0.00    0.00    0.00    0.02     0.00    0.00    0.00    0.00
  192    0.30    0.00    0.17    0.16    0.00    0.00   79.18    1.21    2.26    0.34    0.00    0.00    0.00    0.00    0.03     0.00    0.00    0.00    0.00
  193   14.70    0.19    5.33    0.16    0.79    0.00   83.28    2.02    2.14    5.69    0.00    0.00    0.01    0.01    0.03     0.00    0.00    0.00    0.00
  194   24.40    1.95   12.68    0.16    1.76    0.00   86.40    1.54    1.63   14.81    0.02    0.00    0.04    0.01    0.04     0.03    0.00    0.01    0.00
  195    2.00    0.00    4.10    0.17    0.04    0.00   85.98    1.87    1.98    4.29    0.00    0.00    0.01    0.00    0.02     0.00    0.00    0.00    0.00
  196    9.40    0.04    5.43    0.17    0.69    0.00   86.26    2.55    2.72    5.66    0.00    0.00    0.02    0.00    0.03     0.00    0.00    0.00    0.00
  197    5.10    0.00    3.18    0.17    0.23    0.00   85.93    2.99    3.42    3.37    0.00    0.00    0.01    0.00    0.01     0.00    0.00    0.00    0.00
  198   31.80    4.83   14.23    0.18    2.04    0.00   88.37    3.47    4.22   19.24    0.02    0.00    0.04    0.01    0.01     0.04    0.00    0.01    0.00
  199   10.40    0.06    8.13    0.18    0.58    0.00   89.37    3.03    3.46    8.40    0.00    0.00    0.02    0.00    0.00     0.00    0.00    0.00    0.00
  200   33.50    6.04   16.08    0.19    2.15    0.00   91.96    3.30    3.91   22.32    0.08    0.00    0.03    0.02    0.00     0.12    0.00    0.02    0.00
  201   27.40    3.75   16.07    0.20    1.81    0.00   95.08    2.47    2.61   20.04    0.00    0.00    0.03    0.01    0.00     0.07    0.00    0.01    0.00
  202    0.00    0.00    4.87    0.21    0.00    0.00   94.16    0.91    1.58    5.10    0.00    0.00    0.01    0.00    0.00     0.00    0.00    0.00    0.00
  203    0.00    0.00    1.66    0.21    0.00    0.00   92.94    1.23    2.30    1.89    0.00    0.00    0.00    0.00    0.00     0.00    0.00    0.00    0.00
  204    0.00    0.00    0.58    0.22    0.00    0.00   91.45    1.49    3.31    0.81    0.00    0.00    0.00    0.00    0.00     0.00    0.00    0.00    0.00
  205   13.70    0.24    4.77    0.23    0.53    0.00   93.85    3.90    4.87    5.25    0.00    0.00    0.01    0.00    0.00     0.00    0.00    0.00    0.00
  206    0.00    0.00    1.43    0.23    0.00    0.00   91.04    2.81    5.71    1.68    0.00    0.00    0.00    0.00    0.00     0.00    0.00    0.00    0.00
  207    0.00    0.00    0.49    0.24    0.00    0.00   89.18    1.86    4.86    0.74    0.00    0.00    0.00    0.00    0.00     0.00    0.00    0.00    0.00
  208   23.40    2.17    7.98    0.24    0.88    0.00   94.43    3.78    4.66   10.41    0.02    0.00    0.01    0.01    0.00     0.02    0.00    0.00    0.00
  209    4.10    0.00    3.18    0.25    0.01    0.00   93.98    3.35    4.17    3.44    0.00    0.00    0.00    0.00    0.00     0.00    0.00    0.00    0.00
  210    4.80    0.00    2.09    0.25    0.07    0.00   93.90    3.30    4.01    2.36    0.00    0.00    0.00    0.00    0.00     0.00    0.00    0.00    0.00
  211    0.50    0.00    0.68    0.26    0.00    0.00   92.01    2.39    3.87    0.95    0.00    0.00    0.00    0.00    0.00     0.00    0.00    0.00    0.00
  212    2.80    0.00    0.67    0.26    0.00    0.00   91.55    2.62    3.58    0.94    0.00    0.00    0.00    0.00    0.00     0.00    0.00    0.00    0.00
    7  248.80   19.46  130.56    5.93   12.95    0.00   91.55   75.04  102.98  156.41    0.15    0.02    0.28    0.10    0.31     0.30    0.00    0.05    0.00
  213    9.70    0.05    2.92    0.26    0.24    0.00   94.40    2.62    2.80    3.24    0.00    0.00    0.00    0.00    0.00     0.00    0.00    0.00    0.00
  214    0.30    0.00    0.89    0.26    0.00    0.00   93.02    1.68    2.72    1.17    0.00    0.00    0.00    0.00    0.00     0.00    0.00    0.00    0.00
  215   21.10    1.71    8.78    0.27    1.34    0.00   96.96    1.91    2.01   10.77    0.03    0.00    0.02    0.01    0.00     0.04    0.00    0.01    0.00
  216   14.00    0.37    9.03    0.27    1.10    0.00   96.87    3.29    3.81    9.68    0.00    0.00    0.02    0.01    0.00     0.00    0.00    0.00    0.00
  217   16.50    0.79    9.82    0.27    1.23    0.00   97.94    3.19    3.65   10.90    0.01    0.00    0.02    0.01    0.00     0.01    0.00    0.00    0.00
  218    4.80    0.00    4.14    0.28    0.12    0.00   97.60    3.35    3.91    4.43    0.00    0.00    0.01    0.00    0.00     0.00    0.00    0.00    0.00
  219    0.00    0.00    1.36    0.28    0.00    0.00   94.73    2.87    5.47    1.66    0.00    0.00    0.00    0.00    0.00     0.00    0.00    0.00    0.00
  220    0.50    0.00    0.47    0.28    0.00    0.00   92.32    2.91    6.27    0.77    0.00    0.00    0.00    0.00    0.00     0.00    0.00    0.00    0.00
  221    7.10    0.01    1.70    0.29    0.00    0.00   93.65    3.48    5.25    2.02    0.00    0.00    0.00    0.00    0.00     0.00    0.00    0.00    0.00
  222   74.70   34.13   19.91    0.29    3.26    0.00  100.65    2.66    2.79   54.31    0.29    0.00    0.04    0.03    0.00     0.50    0.00    0.07    0.00
  223    0.00    0.00    5.65    0.30    0.00    0.00   98.49    2.16    3.76    5.99    0.00    0.00    0.01    0.00    0.00     0.00    0.00    0.00    0.00
  224    0.30    0.00    1.91    0.30    0.00    0.00   97.28    1.52    2.91    2.23    0.00    0.00    0.00    0.00    0.00     0.00    0.00    0.00    0.00
  225    0.00    0.00    0.66    0.30    0.00    0.00   95.67    1.60    3.71    0.98    0.00    0.00    0.00    0.00    0.00     0.00    0.00    0.00    0.00
  226    0.00    0.00    0.23    0.31    0.00    0.00   93.95    1.73    4.66    0.56    0.00    0.00    0.00    0.00    0.00     0.00    0.00    0.00    0.00
  227   30.00    5.17    9.65    0.31    1.23    0.00   99.57    4.17    5.20   15.14    0.06    0.01    0.01    0.01    0.00     0.09    0.00    0.01    0.00
  228  103.10   59.83   25.10    0.32    4.36    0.00  103.62    3.21    3.60   85.21    1.01    0.01    0.04    0.04    0.00     1.77    0.01    0.24    0.00
  229   88.60   48.92   28.39    0.33    4.76    0.00  106.71    1.60    1.67   77.66    0.00    0.01    0.05    0.04    0.00     0.57    0.00    0.08    0.00
  230    8.10    0.03   12.10    0.34    0.88    0.00  106.71    1.72    1.79   12.54    0.00    0.00    0.02    0.01    0.00     0.00    0.00    0.00    0.00
  231   37.60   10.96   18.50    0.36    3.58    0.00  107.21    1.69    1.76   29.83    0.06    0.00    0.03    0.03    0.00     0.09    0.00    0.01    0.00
  232    0.50    0.00    5.49    0.37    0.00    0.00  106.57    1.14    1.42    5.89    0.00    0.00    0.01    0.00    0.00     0.00    0.00    0.00    0.00
  233   13.00    0.43    7.93    0.38    1.34    0.00  106.50    2.54    2.64    8.76    0.01    0.00    0.01    0.01    0.00     0.01    0.00    0.00    0.00
  234    0.00    0.00    2.42    0.39    0.00    0.00  103.39    3.11    5.41    2.83    0.00    0.00    0.00    0.00    0.00     0.00    0.00    0.00    0.00
  235    0.00    0.00    0.83    0.40    0.00    0.00  101.48    1.91    4.36    1.25    0.00    0.00    0.00    0.00    0.00     0.00    0.00    0.00    0.00
  236    1.30    0.00    0.30    0.41    0.00    0.00  100.44    2.34    3.47    0.73    0.00    0.00    0.00    0.00    0.00     0.00    0.00    0.00    0.00
  237    0.80    0.00    0.11    0.42    0.00    0.00   99.13    2.10    3.63    0.55    0.00    0.00    0.00    0.00    0.00     0.00    0.00    0.00    0.00
  238   30.20    5.92    9.20    0.42    1.21    0.00  105.95    3.06    3.33   15.55    0.06    0.00    0.01    0.01    0.00     0.08    0.00    0.01    0.00
  239    0.50    0.00    2.68    0.43    0.00    0.00  103.88    2.57    3.82    3.13    0.00    0.00    0.00    0.00    0.00     0.00    0.00    0.00    0.00
  240    0.00    0.00    0.91    0.44    0.00    0.00  101.97    1.91    4.00    1.36    0.00    0.00    0.00    0.00    0.00     0.00    0.00    0.00    0.00
  241    0.00    0.00    0.32    0.44    0.00    0.00  100.40    1.58    3.93    0.78    0.00    0.00    0.00    0.00    0.00     0.00    0.00    0.00    0.00
  242    0.00    0.00    0.11    0.44    0.00    0.00   98.50    1.89    5.27    0.58    0.00    0.00    0.00    0.00    0.00     0.00    0.00    0.00    0.00
  243    5.10    0.00    1.03    0.44    0.00    0.00   99.71    2.42    3.58    1.50    0.00    0.00    0.00    0.00    0.00     0.00    0.00    0.00    0.00
    8  467.80  168.33  192.54   10.61   24.66    0.00   99.71   73.94  112.59  372.00    1.54    0.03    0.31    0.22    0.10     3.17    0.02    0.44    0.00
  244   44.70   14.29   13.48    0.45    2.19    0.00  106.18    2.90    3.08   28.22    0.18    0.00    0.02    0.02    0.00     0.26    0.00    0.03    0.00
  245    2.80    0.00    4.33    0.45    0.00    0.00  105.77    2.52    2.65    4.81    0.00    0.00    0.00    0.00    0.00     0.00    0.00    0.00    0.00
  246    1.30    0.00    1.52    0.45    0.00    0.00  105.29    1.67    1.73    2.00    0.00    0.00    0.00    0.00    0.00     0.00    0.00    0.00    0.00
  247    0.00    0.00    0.52    0.46    0.00    0.00  103.27    2.02    3.45    1.00    0.00    0.00    0.00    0.00    0.00     0.00    0.00    0.00    0.00
  248    0.00    0.00    0.18    0.46    0.00    0.00  101.33    1.94    4.25    0.66    0.00    0.00    0.00    0.00    0.00     0.00    0.00    0.00    0.00
  249    0.00    0.00    0.07    0.46    0.00    0.00   99.54    1.79    4.63    0.54    0.00    0.00    0.00    0.00    0.00     0.00    0.00    0.00    0.00
  250   25.10    3.67    7.73    0.46    0.96    0.00  104.50    4.39    5.44   11.87    0.04    0.00    0.01    0.01    0.00     0.05    0.00    0.01    0.00
  251   12.70    0.35    7.09    0.46    0.81    0.00  106.00    3.06    3.31    7.91    0.00    0.00    0.01    0.01    0.00     0.01    0.00    0.00    0.00
  252    7.40    0.02    4.83    0.46    0.46    0.00  106.16    2.92    3.10    5.33    0.00    0.00    0.01    0.01    0.00     0.00    0.00    0.00    0.00
  253    3.60    0.00    2.22    0.46    0.04    0.00  104.91    3.77    4.50    2.70    0.00    0.00    0.00    0.00    0.00     0.00    0.00    0.00    0.00
  254    0.30    0.00    0.74    0.46    0.00    0.00  101.79    3.43    6.16    1.21    0.00    0.00    0.00    0.00    0.00     0.00    0.00    0.00    0.00
  255    1.30    0.00    0.29    0.46    0.00    0.00   99.32    3.72    6.83    0.76    0.00    0.00    0.00    0.00    0.00     0.00    0.00    0.00    0.00
  256    8.40    0.03    2.01    0.45    0.00    0.00  100.86    4.00    5.95    2.51    0.00    0.00    0.00    0.00    0.00     0.00    0.00    0.00    0.00
  257    0.30    0.00    0.64    0.45    0.00    0.00   98.68    2.48    5.12    1.11    0.00    0.00    0.00    0.00    0.00     0.00    0.00    0.00    0.00
  258    2.30    0.00    0.51    0.45    0.00    0.00   97.67    2.88    4.99    0.98    0.00    0.00    0.00    0.00    0.00     0.00    0.00    0.00    0.00
  259    3.30    0.00    0.76    0.44    0.00    0.00   97.06    3.04    5.39    1.22    0.00    0.00    0.00    0.00    0.00     0.00    0.00    0.00    0.00
  260    5.60    0.00    1.43    0.44    0.00    0.00   98.38    2.53    3.56    1.90    0.00    0.00    0.00    0.00    0.00     0.00    0.00    0.00    0.00
  261   16.50    0.88    5.50    0.44    0.38    0.00  102.25    4.01    4.89    6.84    0.02    0.00    0.01    0.00    0.00     0.02    0.00    0.00    0.00
  262    0.30    0.00    1.68    0.43    0.00    0.00  100.05    2.50    4.38    2.13    0.00    0.00    0.00    0.00    0.00     0.00    0.00    0.00    0.00
  263    0.30    0.00    0.57    0.43    0.00    0.00   97.43    2.92    6.42    1.02    0.00    0.00    0.00    0.00    0.00     0.00    0.00    0.00    0.00
  264   14.70    0.50    4.19    0.42    0.25    0.00  101.85    3.67    4.35    5.14    0.01    0.00    0.00    0.00    0.00     0.01    0.00    0.00    0.00
  265    1.50    0.00    1.41    0.42    0.00    0.00   99.89    3.28    4.54    1.85    0.00    0.00    0.00    0.00    0.00     0.00    0.00    0.00    0.00
  266    0.30    0.00    0.48    0.41    0.00    0.00   96.88    3.32    6.91    0.91    0.00    0.00    0.00    0.00    0.00     0.00    0.00    0.00    0.00
  267    0.00    0.00    0.17    0.41    0.00    0.00   94.44    2.44    6.87    0.60    0.00    0.00    0.00    0.00    0.00     0.00    0.00    0.00    0.00
  268    0.50    0.00    0.06    0.40    0.00    0.00   92.39    2.55    7.18    0.48    0.00    0.00    0.00    0.00    0.00     0.00    0.00    0.00    0.00
  269    0.00    0.00    0.02    0.40    0.00    0.00   90.31    2.08    7.48    0.44    0.00    0.00    0.00    0.00    0.00     0.00    0.00    0.00    0.00
  270    0.00    0.00    0.01    0.39    0.00    0.00   88.35    1.96    8.04    0.42    0.00    0.00    0.00    0.00    0.00     0.00    0.00    0.00    0.00
  271   10.90    0.06    2.49    0.39    0.00    0.00   92.37    3.13    5.92    2.96    0.00    0.00    0.00    0.00    0.00     0.00    0.00    0.00    0.00
  272    0.30    0.00    0.79    0.38    0.00    0.00   90.99    1.67    4.02    1.19    0.00    0.00    0.00    0.00    0.00     0.00    0.00    0.00    0.00
  273    2.30    0.00    0.56    0.38    0.00    0.00   90.26    2.61    5.20    0.96    0.00    0.00    0.00    0.00    0.00     0.00    0.00    0.00    0.00
    9  166.70   19.80   66.31   13.00    5.10    0.00   90.26   85.20  150.35   99.69    0.25    0.01    0.07    0.05    0.06     0.36    0.00    0.05    0.00
  274    0.00    0.00    0.19    0.37    0.00    0.00   88.63    1.63    5.18    0.58    0.00    0.00    0.00    0.00    0.00     0.00    0.00    0.00    0.00
  275    7.10    0.01    1.58    0.36    0.00    0.00   91.14    2.32    3.74    1.98    0.00    0.00    0.00    0.00    0.00     0.00    0.00    0.00    0.00
  276    0.50    0.00    0.51    0.36    0.00    0.00   89.61    2.03    4.51    0.88    0.00    0.00    0.00    0.00    0.00     0.00    0.00    0.00    0.00
  277    0.00    0.00    0.17    0.35    0.00    0.00   87.76    1.85    5.98    0.54    0.00    0.00    0.00    0.00    0.00     0.00    0.00    0.00    0.00
  278    0.50    0.00    0.06    0.34    0.00    0.00   86.35    1.91    5.73    0.42    0.00    0.00    0.00    0.00    0.00     0.00    0.00    0.00    0.00
  279    1.50    0.00    0.10    0.34    0.00    0.00   85.77    1.96    3.84    0.46    0.00    0.00    0.00    0.00    0.00     0.00    0.00    0.00    0.00
  280    2.50    0.00    0.41    0.33    0.00    0.00   85.59    2.11    4.35    0.76    0.00    0.00    0.00    0.00    0.00     0.00    0.00    0.00    0.00
  281    0.30    0.00    0.13    0.32    0.00    0.00   84.77    1.13    3.21    0.48    0.00    0.00    0.00    0.00    0.00     0.00    0.00    0.00    0.00
  282    0.50    0.00    0.05    0.32    0.00    0.00   83.72    1.55    4.46    0.38    0.00    0.00    0.00    0.00    0.00     0.00    0.00    0.00    0.00
  283   72.40   29.66   15.59    0.31    1.13    0.00   99.16    3.69    4.38   45.55    0.39    0.01    0.03    0.01    0.00     0.66    0.00    0.08    0.00
  284    9.90    0.06    8.11    0.31    0.42    0.00   99.64    3.79    4.57    8.52    0.00    0.00    0.02    0.01    0.00     0.00    0.00    0.00    0.00
  285    0.30    0.00    2.59    0.30    0.00    0.00   97.43    2.51    4.35    2.91    0.00    0.00    0.00    0.00    0.00     0.00    0.00    0.00    0.00
  286    6.10    0.01    2.17    0.30    0.00    0.00   98.01    3.61    4.77    2.49    0.00    0.00    0.00    0.00    0.00     0.00    0.00    0.00    0.00
  287    0.30    0.00    0.71    0.29    0.00    0.00   95.26    3.05    6.00    1.02    0.00    0.00    0.00    0.00    0.00     0.00    0.00    0.00    0.00
  288   43.70   12.73   13.60    0.29    1.85    0.00  101.13    4.10    5.04   26.62    0.14    0.00    0.03    0.02    0.00     0.23    0.00    0.03    0.00
  289    0.00    0.00    3.90    0.29    0.00    0.00   98.40    2.73    5.45    4.22    0.00    0.00    0.01    0.00    0.00     0.00    0.00    0.00    0.00
  290    2.30    0.00    1.59    0.28    0.00    0.00   97.07    3.23    5.41    1.90    0.00    0.00    0.00    0.00    0.00     0.00    0.00    0.00    0.00
  291    2.00    0.00    0.79    0.28    0.00    0.00   95.16    3.54    6.86    1.09    0.00    0.00    0.00    0.00    0.00     0.00    0.00    0.00    0.00
  292   27.40    4.18    8.72    0.28    0.97    0.00  101.14    4.06    5.03   13.19    0.09    0.00    0.02    0.01    0.00     0.13    0.00    0.02    0.00
  293    6.10    0.01    4.08    0.27    0.16    0.00  100.65    4.23    5.31    4.38    0.00    0.00    0.01    0.00    0.00     0.00    0.00    0.00    0.00
  294    0.00    0.00    1.32    0.27    0.00    0.00   97.90    2.75    5.59    1.61    0.00    0.00    0.00    0.00    0.00     0.00    0.00    0.00    0.00
  295    0.00    0.00    0.46    0.27    0.00    0.00   95.85    2.06    5.40    0.74    0.00    0.00    0.00    0.00    0.00     0.00    0.00    0.00    0.00
  296    0.00    0.00    0.16    0.26    0.00    0.00   93.52    2.32    7.16    0.44    0.00    0.00    0.00    0.00    0.00     0.00    0.00    0.00    0.00
  297    1.00    0.00    0.06    0.26    0.00    0.00   92.02    2.50    6.12    0.34    0.00    0.00    0.00    0.00    0.00     0.00    0.00    0.00    0.00
  298    0.00    0.00    0.02    0.26    0.00    0.00   90.28    1.74    6.24    0.30    0.00    0.00    0.00    0.00    0.00     0.00    0.00    0.00    0.00
  299    0.00    0.00    0.01    0.25    0.00    0.00   88.80    1.48    6.21    0.28    0.00    0.00    0.00    0.00    0.00     0.00    0.00    0.00    0.00
  300    0.00    0.00    0.01    0.25    0.00    0.00   87.08    1.72    7.96    0.27    0.00    0.00    0.00    0.00    0.00     0.00    0.00    0.00    0.00
  301    0.00    0.00    0.00    0.24    0.00    0.00   85.73    1.36    6.86    0.26    0.00    0.00    0.00    0.00    0.00     0.00    0.00    0.00    0.00
  302    0.30    0.00    0.00    0.24    0.00    0.00   84.89    1.14    4.85    0.26    0.00    0.00    0.00    0.00    0.00     0.00    0.00    0.00    0.00
  303   12.70    0.10    2.97    0.24    0.00    0.00   90.56    2.52    4.77    3.32    0.00    0.00    0.00    0.00    0.00     0.00    0.00    0.00    0.00
  304   37.10    8.21   11.57    0.24    1.02    0.00   99.54    3.53    4.22   20.02    0.34    0.00    0.02    0.01    0.00     0.47    0.00    0.06    0.00
   10  234.50   54.96   81.63    9.05    5.55    0.00   99.54   78.14  163.54  146.21    0.96    0.02    0.15    0.06    0.02     1.49    0.00    0.19    0.00
  305    1.30    0.00    3.51    0.23    0.00    0.00   97.08    3.66    5.51    3.77    0.00    0.00    0.00    0.00    0.00     0.00    0.00    0.00    0.00
  306    3.60    0.00    1.87    0.23    0.02    0.00   97.46    2.19    2.61    2.12    0.00    0.00    0.00    0.00    0.00     0.00    0.00    0.00    0.00
  307    0.00    0.00    0.62    0.23    0.00    0.00   94.78    2.69    6.10    0.87    0.00    0.00    0.00    0.00    0.00     0.00    0.00    0.00    0.00
  308    0.00    0.00    0.22    0.22    0.00    0.00   92.18    2.60    7.62    0.46    0.00    0.00    0.00    0.00    0.00     0.00    0.00    0.00    0.00
  309    0.00    0.00    0.08    0.22    0.00    0.00   90.11    2.07    7.33    0.31    0.00    0.00    0.00    0.00    0.00     0.00    0.00    0.00    0.00
  310    0.00    0.00    0.03    0.22    0.00    0.00   88.32    1.79    7.25    0.26    0.00    0.00    0.00    0.00    0.00     0.00    0.00    0.00    0.00
  311    0.00    0.00    0.01    0.21    0.00    0.00   86.75    1.57    7.05    0.24    0.00    0.00    0.00    0.00    0.00     0.00    0.00    0.00    0.00
  312    3.00    0.00    0.45    0.21    0.00    0.00   86.59    2.50    6.63    0.68    0.00    0.00    0.00    0.00    0.00     0.00    0.00    0.00    0.00
  313    5.30    0.00    1.25    0.21    0.00    0.00   87.85    2.39    5.37    1.48    0.00    0.00    0.00    0.00    0.00     0.00    0.00    0.00    0.00
  314    3.60    0.00    1.08    0.21    0.01    0.00   88.58    1.86    3.14    1.30    0.00    0.00    0.00    0.00    0.00     0.00    0.00    0.00    0.00
  315    3.00    0.00    0.89    0.19    0.03    0.00   88.60    2.17    4.07    1.10    0.00    0.00    0.00    0.00    0.00     0.00    0.00    0.00    0.00
  316    1.30    0.00    0.36    0.19    0.00    0.00   87.74    2.05    3.88    0.56    0.00    0.00    0.00    0.00    0.00     0.00    0.00    0.00    0.00
  317   38.40    8.41   10.92    0.19    1.09    0.00   97.43    3.61    4.38   19.53    0.20    0.00    0.02    0.01    0.00     0.31    0.00    0.04    0.00
  318    0.00    0.00    3.20    0.19    0.00    0.00   95.63    1.80    3.45    3.41    0.00    0.00    0.00    0.00    0.00     0.00    0.00    0.00    0.00
  319    0.00    0.00    1.08    0.19    0.00    0.00   95.01    0.62    1.43    1.28    0.00    0.00    0.00    0.00    0.00     0.00    0.00    0.00    0.00
  320    0.00    0.00    0.37    0.18    0.00    0.00   92.89    2.12    5.47    0.57    0.00    0.00    0.00    0.00    0.00     0.00    0.00    0.00    0.00
  321    0.00    0.00    0.13    0.18    0.00    0.00   91.63    1.26    3.82    0.33    0.00    0.00    0.00    0.00    0.00     0.00    0.00    0.00    0.00
  322    9.40    0.04    2.21    0.18    0.07    0.00   94.11    3.63    5.34    2.44    0.00    0.00    0.00    0.00    0.00     0.00    0.00    0.00    0.00
  323    4.80    0.00    1.71    0.17    0.05    0.00   93.16    4.21    6.50    1.90    0.00    0.00    0.00    0.00    0.00     0.00    0.00    0.00    0.00
  324    8.60    0.03    2.70    0.17    0.15    0.00   95.71    2.73    3.01    2.92    0.00    0.00    0.00    0.00    0.00     0.00    0.00    0.00    0.00
  325    2.30    0.00    1.18    0.17    0.02    0.00   93.98    3.50    4.73    1.37    0.00    0.00    0.00    0.00    0.00     0.00    0.00    0.00    0.00
  326    3.30    0.00    1.00    0.17    0.03    0.00   93.47    2.88    3.88    1.19    0.00    0.00    0.00    0.00    0.00     0.00    0.00    0.00    0.00
  327    0.30    0.00    0.32    0.17    0.00    0.00   91.55    2.23    4.40    0.50    0.00    0.00    0.00    0.00    0.00     0.00    0.00    0.00    0.00
  328   48.30   14.72   14.81    0.17    2.26    0.00   98.17    3.65    4.43   29.70    0.40    0.00    0.05    0.03    0.00     0.64    0.00    0.08    0.00
  329    0.00    0.00    4.22    0.17    0.00    0.00   95.59    2.57    5.11    4.42    0.00    0.00    0.01    0.00    0.00     0.00    0.00    0.00    0.00
  330    0.00    0.00    1.42    0.17    0.00    0.00   93.09    2.50    6.46    1.61    0.00    0.00    0.00    0.00    0.00     0.00    0.00    0.00    0.00
  331    5.30    0.00    1.55    0.17    0.02    0.00   93.36    3.43    6.02    1.74    0.00    0.00    0.00    0.00    0.00     0.00    0.00    0.00    0.00
  332    6.10    0.00    1.87    0.17    0.06    0.00   94.06    3.33    5.12    2.06    0.00    0.00    0.00    0.00    0.00     0.00    0.00    0.00    0.00
  333    0.50    0.00    0.60    0.16    0.00    0.00   91.63    2.93    6.09    0.77    0.00    0.00    0.00    0.00    0.00     0.00    0.00    0.00    0.00
  334   32.50    5.99   10.57    0.16    1.36    0.00   98.53    3.33    3.78   16.73    0.27    0.00    0.03    0.02    0.00     0.36    0.00    0.04    0.00
   11  180.90   29.20   70.23    5.70    5.17    0.00   98.53   77.86  149.94  105.63    0.86    0.01    0.13    0.07    0.00     1.31    0.00    0.16    0.00
  335   10.90    0.09    7.37    0.17    0.65    0.00   98.55    3.93    4.76    7.65    0.00    0.00    0.02    0.01    0.00     0.00    0.00    0.00    0.00
  336    0.30    0.00    2.30    0.17    0.00    0.00   97.56    1.28    2.20    2.48    0.00    0.00    0.01    0.00    0.00     0.00    0.00    0.00    0.00
  337    5.80    0.00    2.06    0.17    0.03    0.00   97.28    4.16    5.42    2.25    0.00    0.00    0.00    0.00    0.00     0.00    0.00    0.00    0.00
  338    2.30    0.00    1.00    0.17    0.00    0.00   95.70    3.40    5.02    1.19    0.00    0.00    0.00    0.00    0.00     0.00    0.00    0.00    0.00
  339    4.30    0.00    1.18    0.17    0.00    0.00   95.47    3.27    4.69    1.37    0.00    0.00    0.00    0.00    0.00     0.00    0.00    0.00    0.00
  340   22.60    2.34    8.56    0.17    1.23    0.00   98.70    4.03    4.92   11.09    0.18    0.00    0.02    0.02    0.00     0.20    0.00    0.02    0.00
  341   14.50    0.48    8.26    0.18    0.88    0.00  100.30    3.23    3.60    8.93    0.00    0.00    0.02    0.02    0.00     0.02    0.00    0.00    0.00
  342    0.50    0.00    2.52    0.18    0.00    0.00   97.92    2.89    4.58    2.72    0.00    0.00    0.01    0.00    0.00     0.00    0.00    0.00    0.00
  343   50.50   17.60   16.39    0.19    2.68    0.00  102.52    3.42    3.87   34.18    1.22    0.00    0.05    0.04    0.00     1.55    0.00    0.19    0.00
  344   21.60    2.51   13.60    0.19    1.63    0.00  103.80    3.39    3.81   16.33    0.00    0.00    0.04    0.03    0.00     0.12    0.00    0.01    0.00
  345   41.10   12.65   18.54    0.20    3.02    0.00  106.36    2.29    2.33   31.40    1.31    0.00    0.05    0.05    0.00     1.44    0.00    0.18    0.00
  346    1.30    0.00    5.55    0.21    0.00    0.00  104.56    3.00    3.53    5.79    0.00    0.00    0.01    0.00    0.00     0.00    0.00    0.00    0.00
  347   17.50    1.36    9.11    0.22    1.50    0.00  105.63    3.17    3.44   10.70    0.07    0.00    0.02    0.03    0.00     0.08    0.00    0.01    0.00
  348    8.40    0.03    5.92    0.23    0.58    0.00  104.83    4.01    4.78    6.20    0.00    0.00    0.01    0.01    0.00     0.00    0.00    0.00    0.00
  349    1.50    0.00    1.99    0.24    0.00    0.00  102.69    3.46    4.93    2.24    0.00    0.00    0.00    0.00    0.00     0.00    0.00    0.00    0.00
  350    1.00    0.00    0.68    0.24    0.00    0.00  100.08    3.60    6.39    0.94    0.00    0.00    0.00    0.00    0.00     0.00    0.00    0.00    0.00
  351    6.60    0.01    1.68    0.25    0.00    0.00   99.87    4.67    7.73    1.96    0.00    0.00    0.00    0.00    0.00     0.00    0.00    0.00    0.00
  352    3.30    0.00    1.13    0.25    0.00    0.00   98.24    4.05    7.43    1.40    0.00    0.00    0.00    0.00    0.00     0.00    0.00    0.00    0.00
  353    0.00    0.00    0.38    0.26    0.00    0.00   95.59    2.65    7.48    0.65    0.00    0.00    0.00    0.00    0.00     0.00    0.00    0.00    0.00
  354    6.40    0.01    1.47    0.26    0.00    0.00   96.51    3.48    6.55    1.76    0.00    0.00    0.00    0.00    0.00     0.00    0.00    0.00    0.00
  355    6.60    0.01    1.92    0.26    0.00    0.00   97.83    3.13    4.79    2.21    0.00    0.00    0.00    0.00    0.00     0.00    0.00    0.00    0.00
  356    0.00    0.00    0.62    0.27    0.00    0.00   95.77    2.06    5.03    0.91    0.00    0.00    0.00    0.00    0.00     0.00    0.00    0.00    0.00
  357    3.30    0.00    0.75    0.27    0.00    0.00   95.94    2.33    3.55    1.03    0.00    0.00    0.00    0.00    0.00     0.00    0.00    0.00    0.00
  358   16.30    0.74    4.92    0.27    0.18    0.00  100.88    3.60    4.26    5.95    0.02    0.00    0.00    0.00    0.00     0.02    0.00    0.00    0.00
  359    3.30    0.00    2.10    0.27    0.00    0.00  100.33    2.97    3.52    2.39    0.00    0.00    0.00    0.00    0.00     0.00    0.00    0.00    0.00
  360    2.00    0.00    0.95    0.27    0.00    0.00   99.24    2.72    3.42    1.24    0.00    0.00    0.00    0.00    0.00     0.00    0.00    0.00    0.00
  361    1.00    0.00    0.32    0.27    0.00    0.00   97.38    2.87    4.38    0.61    0.00    0.00    0.00    0.00    0.00     0.00    0.00    0.00    0.00
  362    0.00    0.00    0.11    0.27    0.00    0.00   95.22    2.16    5.33    0.40    0.00    0.00    0.00    0.00    0.00     0.00    0.00    0.00    0.00
  363    7.10    0.01    1.56    0.27    0.00    0.00   96.37    3.69    5.82    1.86    0.00    0.00    0.00    0.00    0.00     0.00    0.00    0.00    0.00
  364    1.00    0.00    0.50    0.27    0.00    0.00   95.02    2.35    3.69    0.78    0.00    0.00    0.00    0.00    0.00     0.00    0.00    0.00    0.00
  365   48.80   15.92   13.75    0.27    1.99    0.00  102.59    3.89    4.62   29.94    1.45    0.00    0.03    0.03    0.00     1.62    0.00    0.20    0.00
   12  309.80   53.76  137.21    7.09   14.36    0.00  102.59   99.15  145.83  198.53    4.25    0.01    0.31    0.25    0.00     5.05    0.00    0.63    0.00

 2013 3096.30  689.73 1327.92  111.20  133.12    0.00  102.59  936.50 1499.33 2136.42   22.14    0.36    2.47    1.88   19.53    44.64    0.05    5.56    0.00
1
    SWAT Dec 23 2016    VER 2016/Rev 664                                            

    General Input/Output section (file.cio):                                        
    2/12/2020 14:37:37 QSWAT Workflow v1.5.2                                        
                                                                                    
Annual Summary for Watershed in year    5 of simulation

UNIT                                    PERCO    TILE                           WATER     SED     NO3     NO3     NO3     NO3        N       P       P
TIME     PREC    SURQ    LATQ     GWQ    LATE       Q     SW       ET     PET   YIELD   YIELD    SURQ    LATQ    PERC    CROP  ORGANIC SOLUBLE ORGANIC TILENO3
         (mm)    (mm)    (mm)    (mm)    (mm)    (mm)    (mm)    (mm)    (mm)    (mm)   (t/ha)  ------------------(kg nutrient/ha)-------------------- (kg/ha)
    1   88.40   48.41   24.55    0.28    4.32    0.00  106.76    2.18    2.21   73.22    3.43    0.00    0.07    0.08    0.00    11.17    0.00    1.37    0.00
    2   60.50   27.01   25.51    0.29    4.65    0.00  106.81    2.45    2.49   52.84    0.00    0.00    0.07    0.08    0.00     5.34    0.00    0.66    0.00
    3   51.10   20.03   24.54    0.30    4.31    0.00  105.75    3.56    4.03   44.89    1.84    0.00    0.06    0.08    0.00     3.46    0.00    0.43    0.00
    4   32.50    7.88   19.95    0.31    2.98    0.00  105.59    3.75    4.34   28.17    0.00    0.00    0.05    0.06    0.00     0.67    0.00    0.08    0.00
    5    3.60    0.00    6.76    0.33    0.00    0.00  104.84    3.36    4.02    7.12    0.00    0.00    0.01    0.00    0.00     0.00    0.00    0.00    0.00
    6   38.60   11.29   16.02    0.34    3.16    0.00  106.96    2.39    2.42   27.66    0.89    0.00    0.03    0.06    0.00     1.61    0.00    0.20    0.00
    7   32.30    7.91   17.75    0.36    3.27    0.00  106.72    2.63    2.66   26.04    0.00    0.00    0.04    0.06    0.00     1.06    0.00    0.13    0.00
    8   29.50    6.39   17.51    0.37    3.00    0.00  106.46    2.89    2.99   24.29    0.39    0.00    0.04    0.06    0.00     0.72    0.00    0.09    0.00
    9   29.20    6.21   17.29    0.39    2.90    0.00  106.60    2.75    2.78   23.91    0.04    0.00    0.03    0.06    0.00     0.76    0.00    0.09    0.00
   10    2.50    0.00    5.62    0.41    0.00    0.00  105.32    3.22    3.70    6.05    0.00    0.00    0.01    0.00    0.00     0.00    0.00    0.00    0.00
   11    1.30    0.00    1.98    0.42    0.00    0.00  103.57    2.95    3.85    2.42    0.00    0.00    0.00    0.00    0.00     0.00    0.00    0.00    0.00
   12    0.50    0.00    0.69    0.44    0.00    0.00  101.67    2.40    4.21    1.15    0.00    0.00    0.00    0.00    0.00     0.00    0.00    0.00    0.00
   13    0.50    0.00    0.25    0.45    0.00    0.00   99.82    2.35    4.87    0.71    0.00    0.00    0.00    0.00    0.00     0.00    0.00    0.00    0.00
   14    7.10    0.01    1.63    0.46    0.00    0.00  100.74    3.88    6.06    2.12    0.00    0.00    0.00    0.00    0.00     0.00    0.00    0.00    0.00
   15    0.00    0.00    0.53    0.46    0.00    0.00   98.03    2.71    6.64    1.01    0.00    0.00    0.00    0.00    0.00     0.00    0.00    0.00    0.00
   16   45.50   14.47   12.74    0.47    1.86    0.00  104.83    4.40    5.37   27.69    1.81    0.00    0.01    0.03    0.00     2.77    0.00    0.34    0.00
   17    0.50    0.00    3.64    0.48    0.00    0.00  102.72    2.60    4.28    4.15    0.00    0.00    0.00    0.00    0.00     0.00    0.00    0.00    0.00
   18    0.00    0.00    1.23    0.49    0.00    0.00  100.67    2.05    4.81    1.74    0.00    0.00    0.00    0.00    0.00     0.00    0.00    0.00    0.00
   19    2.80    0.00    0.83    0.50    0.00    0.00   99.87    3.01    5.15    1.34    0.00    0.00    0.00    0.00    0.00     0.00    0.00    0.00    0.00
   20    8.10    0.02    2.11    0.50    0.00    0.00  101.55    3.68    5.20    2.66    0.00    0.00    0.00    0.00    0.00     0.00    0.00    0.00    0.00
   21    1.00    0.00    0.68    0.51    0.00    0.00   99.29    3.26    5.50    1.21    0.00    0.00    0.00    0.00    0.00     0.00    0.00    0.00    0.00
   22    5.30    0.00    1.34    0.51    0.00    0.00   98.96    3.99    6.58    1.88    0.00    0.00    0.00    0.00    0.00     0.00    0.00    0.00    0.00
   23    1.30    0.00    0.50    0.51    0.00    0.00   96.55    3.61    7.09    1.04    0.00    0.00    0.00    0.00    0.00     0.00    0.00    0.00    0.00
   24   11.20    0.10    2.83    0.52    0.00    0.00   99.51    4.20    5.79    3.47    0.00    0.00    0.00    0.00    0.00     0.00    0.00    0.00    0.00
   25   44.40   13.99   14.26    0.52    2.12    0.00  105.47    3.22    3.49   28.78    0.82    0.00    0.02    0.03    0.00     1.45    0.00    0.18    0.00
   26   33.80    8.55   16.99    0.53    2.91    0.00  106.00    3.32    3.65   26.09    0.15    0.00    0.03    0.05    0.00     1.39    0.00    0.17    0.00
   27    5.60    0.01    6.57    0.53    0.18    0.00  104.58    4.63    5.73    7.13    0.00    0.00    0.01    0.00    0.00     0.00    0.00    0.00    0.00
   28    0.50    0.00    2.16    0.54    0.00    0.00  102.04    3.04    5.31    2.72    0.00    0.00    0.00    0.00    0.00     0.00    0.00    0.00    0.00
   29    0.80    0.00    0.75    0.54    0.00    0.00   99.90    2.95    5.71    1.31    0.00    0.00    0.00    0.00    0.00     0.00    0.00    0.00    0.00
   30    4.80    0.00    1.22    0.54    0.00    0.00   99.75    3.52    6.09    1.79    0.00    0.00    0.00    0.00    0.00     0.00    0.00    0.00    0.00
   31    6.40    0.01    1.79    0.54    0.00    0.00  100.32    3.76    5.79    2.36    0.00    0.00    0.00    0.00    0.00     0.00    0.00    0.00    0.00
    1  549.60  172.30  250.23   13.84   35.65    0.00  100.32   98.72  142.81  436.99    9.39    0.01    0.49    0.65    0.00    30.42    0.02    3.73    0.00
   32    1.00    0.00    0.58    0.54    0.00    0.00   98.27    3.06    5.40    1.15    0.00    0.00    0.00    0.00    0.00     0.00    0.00    0.00    0.00
   33    3.00    0.00    0.71    0.54    0.00    0.00   96.90    3.62    7.01    1.27    0.00    0.00    0.00    0.00    0.00     0.00    0.00    0.00    0.00
   34    0.50    0.00    0.23    0.54    0.00    0.00   94.85    2.55    6.30    0.80    0.00    0.00    0.00    0.00    0.00     0.00    0.00    0.00    0.00
   35    0.00    0.00    0.08    0.54    0.00    0.00   92.99    1.86    6.38    0.64    0.00    0.00    0.00    0.00    0.00     0.00    0.00    0.00    0.00
   36    0.00    0.00    0.03    0.53    0.00    0.00   91.40    1.59    6.33    0.59    0.00    0.00    0.00    0.00    0.00     0.00    0.00    0.00    0.00
   37    0.00    0.00    0.01    0.53    0.00    0.00   90.38    1.02    4.47    0.57    0.00    0.00    0.00    0.00    0.00     0.00    0.00    0.00    0.00
   38    0.00    0.00    0.01    0.53    0.00    0.00   88.79    1.59    5.43    0.56    0.00    0.00    0.00    0.00    0.02     0.00    0.00    0.00    0.00
   39   25.10    2.81    5.78    0.52    0.02    0.00   97.33    5.22    6.63    9.13    0.29    0.00    0.00    0.00    0.38     0.40    0.00    0.05    0.00
   40   26.40    3.96   10.51    0.52    1.16    0.00  101.19    4.90    5.90   15.00    0.00    0.14    0.03    0.01    0.42     0.40    0.00    0.05    0.00
   41    0.00    0.00    3.12    0.51    0.00    0.00   97.94    3.26    6.18    3.67    0.00    0.00    0.01    0.00    0.46     0.00    0.00    0.00    0.00
   42    0.00    0.00    1.06    0.51    0.00    0.00   95.10    2.84    6.18    1.59    0.00    0.00    0.00    0.00    0.51     0.00    0.00    0.00    0.00
   43    3.00    0.00    0.81    0.51    0.00    0.00   93.56    3.88    6.51    1.34    0.00    0.00    0.03    0.00    0.63     0.00    0.00    0.00    0.00
   44    2.00    0.00    0.51    0.50    0.00    0.00   91.44    3.77    5.89    1.03    0.00    0.00    0.01    0.00    0.69     0.00    0.00    0.00    0.00
   45   25.90    3.26    6.83    0.50    0.46    0.00   99.38    4.55    4.66   10.60    0.09    0.19    0.04    0.00    0.71     0.13    0.00    0.02    0.00
   46   17.30    1.06    8.40    0.49    1.00    0.00  101.41    4.09    4.10    9.98    0.00    0.05    0.07    0.01    0.58     0.02    0.00    0.00    0.00
   47    2.30    0.00    2.83    0.49    0.00    0.00   97.82    5.43    6.39    3.34    0.00    0.00    0.01    0.00    0.51     0.00    0.00    0.00    0.00
   48    4.10    0.00    1.72    0.48    0.00    0.00   97.60    3.18    3.33    2.23    0.00    0.00    0.01    0.00    0.46     0.00    0.00    0.00    0.00
   49   13.50    0.32    4.53    0.48    0.50    0.00  100.79    3.75    3.75    5.35    0.00    0.01    0.04    0.00    0.49     0.01    0.00    0.00    0.00
   50    2.00    0.00    1.62    0.47    0.00    0.00   97.95    4.46    4.69    2.12    0.00    0.00    0.01    0.00    0.29     0.00    0.00    0.00    0.00
   51   30.00    5.59   10.65    0.46    1.65    0.00  102.18    4.06    4.06   16.72    0.03    0.04    0.11    0.02    0.45     0.05    0.00    0.01    0.00
   52   51.60   19.33   18.95    0.46    3.02    0.00  104.71    4.09    4.09   38.74    0.07    0.01    0.19    0.06    0.28     0.15    0.00    0.02    0.00
   53    0.30    0.00    5.48    0.46    0.00    0.00  101.89    3.12    3.68    5.98    0.00    0.00    0.02    0.00    0.25     0.00    0.00    0.00    0.00
   54    0.80    0.00    1.85    0.46    0.00    0.00   98.84    3.85    4.65    2.34    0.00    0.00    0.01    0.00    0.24     0.00    0.00    0.00    0.00
   55   30.70    6.10    9.77    0.46    1.42    0.00  104.08    4.83    4.86   16.35    0.05    0.00    0.07    0.04    0.27     0.07    0.00    0.01    0.00
   56   30.50    6.60   14.17    0.47    2.49    0.00  104.35    4.91    5.04   21.25    0.03    0.00    0.10    0.07    0.32     0.09    0.00    0.01    0.00
   57   45.50   15.65   19.15    0.47    3.49    0.00  105.98    3.36    3.36   35.28    0.16    0.00    0.12    0.10    0.23     0.19    0.00    0.02    0.00
   58   35.80    9.78   19.15    0.48    3.30    0.00  104.60    4.75    4.86   29.45    0.00    0.00    0.10    0.10    0.29     0.08    0.00    0.01    0.00
   59    0.30    0.00    5.76    0.49    0.00    0.00  101.81    3.09    4.04    6.28    0.00    0.00    0.01    0.00    0.29     0.00    0.00    0.00    0.00
    2  351.60   74.45  154.33   13.93   18.51    0.00  101.81  100.66  144.19  243.35    0.73    0.43    0.99    0.42    8.78     1.57    0.00    0.20    0.00
   60    5.10    0.00    3.00    0.49    0.00    0.00  100.41    4.96    5.69    3.52    0.00    0.00    0.00    0.00    0.31     0.00    0.00    0.00    0.00
   61    6.60    0.01    2.43    0.50    0.00    0.00  100.61    4.28    4.70    2.97    0.00    0.00    0.00    0.00    0.38     0.00    0.00    0.00    0.00
   62    8.60    0.04    2.86    0.50    0.13    0.00  100.52    5.52    5.89    3.42    0.00    0.00    0.01    0.01    0.45     0.00    0.00    0.00    0.00
   63    3.60    0.00    1.55    0.51    0.00    0.00   98.66    4.51    4.95    2.08    0.00    0.00    0.00    0.00    0.48     0.00    0.00    0.00    0.00
   64    0.00    0.00    0.52    0.51    0.00    0.00   94.90    3.76    5.49    1.05    0.00    0.00    0.00    0.00    0.48     0.00    0.00    0.00    0.00
   65   47.20   14.87   12.13    0.51    1.87    0.00  103.52    4.79    4.80   27.52    0.10    0.00    0.03    0.05    0.50     0.10    0.00    0.01    0.00
   66    1.00    0.00    3.42    0.51    0.00    0.00  101.39    3.13    3.38    3.97    0.00    0.00    0.00    0.00    0.38     0.00    0.00    0.00    0.00
   67    7.60    0.02    2.90    0.52    0.01    0.00  101.49    4.87    5.03    3.47    0.00    0.00    0.00    0.00    0.38     0.00    0.00    0.00    0.00
   68    4.30    0.00    1.78    0.52    0.00    0.00   99.52    5.04    5.40    2.32    0.00    0.00    0.00    0.00    0.38     0.00    0.00    0.00    0.00
   69    2.00    0.00    0.81    0.52    0.00    0.00   97.16    4.03    4.36    1.36    0.00    0.00    0.00    0.00    0.49     0.00    0.00    0.00    0.00
   70    0.00    0.00    0.28    0.52    0.00    0.00   93.68    3.48    4.92    0.82    0.00    0.00    0.00    0.00    0.42     0.00    0.00    0.00    0.00
   71    0.50    0.00    0.10    0.51    0.00    0.00   90.88    3.30    4.55    0.64    0.00    0.00    0.00    0.00    0.44     0.00    0.00    0.00    0.00
   72   52.30   17.33   12.02    0.51    1.66    0.00  102.49    4.55    4.55   29.87    0.11    0.00    0.01    0.02    0.42     0.11    0.00    0.01    0.00
   73   30.00    6.14   14.21    0.51    1.99    0.00  104.57    4.36    4.36   20.89    0.00    0.00    0.01    0.04    0.33     0.04    0.00    0.01    0.00
   74    3.00    0.00    4.69    0.52    0.00    0.00  102.66    4.19    4.40    5.24    0.00    0.00    0.00    0.00    0.19     0.00    0.00    0.00    0.00
   75    1.00    0.00    1.58    0.51    0.00    0.00   97.97    5.69    7.33    2.12    0.00    0.00    0.00    0.00    0.11     0.00    0.00    0.00    0.00
   76    6.40    0.01    1.91    0.50    0.00    0.00   96.35    5.99    7.65    2.44    0.00    0.00    0.00    0.00    0.26     0.00    0.00    0.00    0.00
   77    0.30    0.00    0.63    0.50    0.00    0.00   92.70    3.96    6.13    1.15    0.00    0.00    0.00    0.00    0.30     0.00    0.00    0.00    0.00
   78    0.30    0.00    0.22    0.49    0.00    0.00   89.52    3.47    5.25    0.74    0.00    0.00    0.00    0.00    0.27     0.00    0.00    0.00    0.00
   79    4.80    0.00    1.03    0.49    0.00    0.00   88.39    4.53    5.40    1.54    0.00    0.00    0.00    0.00    0.22     0.00    0.00    0.00    0.00
   80    0.00    0.00    0.33    0.49    0.00    0.00   84.69    3.71    5.73    0.85    0.00    0.00    0.00    0.00    0.22     0.00    0.00    0.00    0.00
   81    0.00    0.00    0.12    0.49    0.00    0.00   81.14    3.55    5.73    0.63    0.00    0.00    0.00    0.00    0.21     0.00    0.00    0.00    0.00
   82   10.20    0.04    2.35    0.48    0.00    0.00   82.96    4.91    6.16    2.90    0.00    0.00    0.00    0.00    0.20     0.00    0.00    0.00    0.00
   83   19.10    0.82    5.24    0.47    0.00    0.00   89.43    5.15    5.81    6.56    0.01    0.00    0.00    0.00    0.17     0.01    0.00    0.00    0.00
   84    0.00    0.00    1.68    0.47    0.00    0.00   85.74    3.69    5.35    2.18    0.00    0.00    0.00    0.00    0.14     0.00    0.00    0.00    0.00
   85    0.00    0.00    0.58    0.46    0.00    0.00   81.60    4.14    6.27    1.06    0.00    0.00    0.00    0.00    0.10     0.00    0.00    0.00    0.00
   86    0.00    0.00    0.20    0.45    0.00    0.00   77.44    4.17    6.91    0.68    0.00    0.00    0.00    0.00    0.11     0.00    0.00    0.00    0.00
   87    8.60    0.02    1.97    0.45    0.00    0.00   78.68    4.52    5.23    2.46    0.00    0.00    0.00    0.00    0.10     0.00    0.00    0.00    0.00
   88    0.30    0.00    0.63    0.44    0.00    0.00   76.06    2.92    4.30    1.10    0.00    0.00    0.00    0.00    0.09     0.00    0.00    0.00    0.00
   89    0.00    0.00    0.22    0.44    0.00    0.00   72.33    3.74    5.68    0.68    0.00    0.00    0.00    0.00    0.06     0.00    0.00    0.00    0.00
   90    0.00    0.00    0.08    0.43    0.00    0.00   68.68    3.64    5.83    0.53    0.00    0.00    0.00    0.00    0.10     0.00    0.00    0.00    0.00
    3  222.80   39.29   81.45   15.23    5.68    0.00   68.68  132.54  167.22  136.75    0.22    0.01    0.07    0.12    8.67     0.26    0.00    0.03    0.00
   91   43.70    7.79   10.59    0.42    0.12    0.00   86.43    2.45    2.45   18.82    0.03    0.00    0.00    0.00    0.10     0.03    0.00    0.00    0.00
[...]
     19   2   FAGASA     .179E+00   70.00   97.20    9.28    0.00    0.00    0.00    0.20 3485.48  867.44 1641.36  955.48   25.08    2.22   49.08   12.01    8.41  867.44
     20   2   OLOAVA     .564E-02   66.00  149.80    3.83    0.00    0.00    0.00    0.20 3485.48  855.35 1440.57 1133.98    2.71    2.30   29.63   13.95    9.77  855.35
     21   2   FAGASA     .462E-02   77.00   97.20    7.57    0.00    0.00    0.00    0.20 3485.48 1150.45 1336.29  981.99    3.77    1.80   25.62   14.81   10.37 1150.45
     22   2   OLOAVA     .226E-02   86.00  149.80    2.54    0.00    0.00    0.00    0.20 3485.48 1898.71  476.64 1063.77  186.70    3.07   68.33    0.00    0.00 1898.71
     23   3   OLOAVA     .410E-03   86.00  149.80    0.31    0.00    0.00    0.00    0.20 3485.48 1906.45  430.92 1080.16   16.05    0.41   74.30    0.00    0.00 1905.39
     24   3   OLOAVA     .677E-02   86.00  149.80    1.13    0.00    0.00    0.00    0.20 3485.48 1905.85  435.98 1078.68   91.28    0.77   68.77    0.00    0.00 1905.70
     25   3   FAGASA     .103E-03   86.00   97.20    6.34    0.00    0.00    0.00    0.20 3485.48 1771.40  819.32  888.16  144.69    2.06   55.65    0.00    0.00 1771.40
     26   3   OLOAVA     .616E-03   86.00  149.80    0.38    0.00    0.00    0.00    0.20 3485.48 1906.39  431.24 1080.08   20.87    0.43   72.72    0.00    0.00 1905.46
     27   3   OLOAVA     .954E-02   86.00  149.80    1.13    0.00    0.00    0.00    0.20 3485.48 1905.85  435.98 1078.68   95.10    0.77   68.73    0.00    0.00 1905.70
     28   3   OLOAVA     .601E-01   77.00  149.80    2.19    0.00  179.42    0.00    0.20 3485.48 1352.24  998.64 1058.22   51.75   11.97   91.51   26.36    9.16 1352.24
     29   3   FAGASA     .325E-01   83.00   97.20    6.27    0.00  195.22    0.00    0.20 3485.48 1506.83 1035.55  928.94   73.93   38.19   70.73   24.86    8.61 1506.83
     30   3   OLOAVA     .123E-02   59.00  149.80    0.38    0.00  130.36    0.00    0.20 3485.48  612.13 1581.74 1133.15    0.03    1.42    0.58   60.06   38.99  612.00
     31   3   OLOAVA     .444E-01   59.00  149.80    1.78    0.00  132.56    0.00    0.20 3485.48  605.35 1643.48 1131.54    0.27    6.26    3.66   59.96   38.93  605.35
     32   3   OLOAVA     .205E-03   55.00  149.80    0.44    0.00    0.00    0.00    0.20 3485.48  511.16 1678.20 1141.73    0.62    0.13   13.34    8.84    6.19  511.08
     33   3   OLOAVA     .711E-01   55.00  149.80    2.29    0.00    0.00    0.00    0.20 3485.48  508.39 1732.13 1135.24    6.86    1.60   45.99    9.34    6.54  508.39
     34   3   FAGASA     .251E+00   70.00   97.20    7.78    0.00    0.00    0.00    0.20 3485.48  895.90 1590.19  966.07   22.72    2.09   48.31   11.82    8.27  895.90
     35   3   OLOAVA     .103E-03   66.00  149.80    0.42    0.00    0.00    0.00    0.20 3485.48  866.80 1341.28 1146.60    0.14    0.15    3.30   13.16    9.21  866.60
     36   3   OLOAVA     .119E-01   66.00  149.80    1.18    0.00    0.00    0.00    0.20 3485.48  866.35 1348.61 1146.00    0.96    0.39   15.55   13.08    9.15  866.33
     37   3   FAGASA     .390E-02   77.00   97.20    7.88    0.00    0.00    0.00    0.20 3485.48 1138.74 1352.91  978.54    3.79    1.79   25.65   14.82   10.37 1138.74
     38   3   OLOAVA     .103E-03   86.00  149.80    0.44    0.00    0.00    0.00    0.20 3485.48 1906.37  431.46 1080.02   19.42    0.45   73.24    0.00    0.00 1905.52
     39   3   OLOAVA     .298E-02   86.00  149.80    2.31    0.00    0.00    0.00    0.20 3485.48 1905.43  439.41 1077.51  171.46    1.03   68.35    0.00    0.00 1905.35
     40   4   FAGASA     .346E+00   70.00   97.20    5.80    0.00    0.00    0.00    0.20 3485.48  922.90 1539.92  980.27   18.76    2.12   47.06   11.33    7.93  922.90
     41   5   LEAFU      .103E-03   70.00  196.50    0.14    0.00    0.00    0.00    0.20 3485.48 1023.91 1192.44 1141.58    0.80    0.04    9.01    8.09    5.66 1022.92
     42   5   LEAFU      .513E-03   70.00  196.50    0.36    0.00    0.00    0.00    0.20 3485.48 1023.50 1193.73 1141.36    3.25    0.07   22.15    8.05    5.63 1023.22
     43   5   LEAFU      .236E-02   70.00  196.50    1.95    0.00    0.00    0.00    0.20 3485.48 1021.67 1201.70 1139.96   22.35    0.23   34.79    8.10    5.67 1021.66
     44   5   FAGASA     .245E+00   70.00   97.20    7.41    0.00    0.00    0.00    0.20 3485.48  901.53 1578.13  968.54   21.71    2.09   47.95   11.77    8.24  901.53
     45   5   LEAFU      .103E-03   77.00  196.50    2.55    0.00    0.00    0.00    0.20 3485.48 1350.40  898.74 1145.34    4.55    0.30   21.23   12.49    8.74 1350.38
     46   5   FAGASA     .205E-03   77.00   97.20    2.11    0.00    0.00    0.00    0.20 3485.48 1324.84 1009.11 1052.80    1.43    0.30   15.56    9.29    6.51 1324.82
     47   6   OLOAVA     .215E-02   59.00  149.80    3.11    0.00  139.30    0.00    0.20 3485.48  566.89 1751.11 1122.09    0.30   13.24    3.98   58.99   38.30  566.89
     48   6   FAGASA     .400E-02   72.00   97.20    5.78    0.00  136.26    0.00    0.20 3485.48  870.97 1546.45 1034.07    0.43   15.34    3.55   53.59   34.72  870.97
     49   6   OLOAVA     .196E-01   55.00  149.80   10.35    0.00    0.00    0.00    0.20 3485.48  458.64 1909.69 1080.81   19.49    3.20   57.82   11.66    8.16  458.64
     50   6   LEAFU      .195E-02   70.00  196.50    1.56    0.00    0.00    0.00    0.20 3485.48 1021.86 1200.63 1140.15   17.46    0.21   33.77    8.08    5.66 1021.84
     51   6   FAGASA     .308E-03   70.00   97.20    0.11    0.00    0.00    0.00    0.20 3485.48  999.12 1309.86 1042.92    0.20    0.03    3.33    5.86    4.11  997.88
     52   6   FAGASA     .308E-03   70.00   97.20    0.31    0.00    0.00    0.00    0.20 3485.48  998.88 1310.91 1042.73    0.72    0.05   10.15    5.85    4.10  998.35
     53   6   FAGASA     .180E+00   70.00   97.20    7.23    0.00    0.00    0.00    0.20 3485.48  904.25 1573.64  969.71   20.53    2.10   47.47   11.74    8.22  904.25
     54   6   OLOAVA     .462E-02   66.00  149.80    6.55    0.00    0.00    0.00    0.20 3485.48  821.41 1518.53 1107.73    4.57    2.83   40.55   13.91    9.73  821.42
     55   6   FAGASA     .718E-03   77.00   97.20    8.38    0.00    0.00    0.00    0.20 3485.48 1120.33 1378.81  973.22    3.20    1.80   23.07   14.84   10.39 1120.33
     56   6   LEAFU      .821E-03   77.00  196.50    2.27    0.00    0.00    0.00    0.20 3485.48 1350.50  898.08 1145.45    5.32    0.28   23.12   12.46    8.72 1350.48
     57   6   FAGASA     .103E-03   77.00   97.20    3.08    0.00    0.00    0.00    0.20 3485.48 1297.53 1086.49 1042.45    1.49    1.43   15.37   11.09    7.77 1297.53
     58   6   LEAFU      .308E-03   77.00  196.50    1.08    0.00    0.00    0.00    0.20 3485.48 1351.08  894.50 1146.14    2.20    0.21   13.98   12.43    8.70 1351.04
     59   7   FAGASA     .308E-03   70.00   97.20    0.09    0.00    0.00    0.00    0.20 3485.48  999.16 1309.72 1042.94    0.15    0.03    2.62    5.87    4.11  997.59
     60   7   FAGASA     .518E-01   70.00   97.20    8.73    0.00    0.00    0.00    0.20 3485.48  880.30 1620.60  959.78   20.64    2.11   47.29   11.96    8.37  880.30
     61   8   FAGASA     .164E-02   70.00   97.20    0.07    0.00    0.00    0.00    0.20 3485.48  999.19 1309.57 1042.96    0.14    0.02    2.66    5.86    4.11  996.87
     62   8   FAGASA     .923E-03   70.00   97.20    0.31    0.00    0.00    0.00    0.20 3485.48  998.73 1311.58 1042.64    0.90    0.06   12.00    5.85    4.10  998.42
     63   8   FAGASA     .489E-01   70.00   97.20    7.67    0.00    0.00    0.00    0.20 3485.48  897.55 1586.70  966.84   18.46    2.09   46.40   11.81    8.27  897.55
     64   9   LEAFU      .205E-03   70.00  196.50    0.33    0.00    0.00    0.00    0.20 3485.48 1023.54 1193.59 1141.39    2.60    0.06   19.54    8.06    5.64 1023.24
     65   9   LEAFU      .421E-02   70.00  196.50    2.34    0.00    0.00    0.00    0.20 3485.48 1021.50 1202.72 1139.74   28.78    0.26   35.85    8.11    5.68 1021.49
     66   9   FAGASA     .103E-03   70.00   97.20    0.07    0.00    0.00    0.00    0.20 3485.48  999.21 1309.47 1043.00    0.02    0.02    0.43    5.87    4.11  995.19
     67   9   FAGASA     .103E-03   70.00   97.20    0.31    0.00    0.00    0.00    0.20 3485.48  998.73 1311.53 1042.68    0.64    0.06    8.85    5.86    4.10  998.42
     68   9   FAGASA     .212E+00   70.00   97.20    6.95    0.00    0.00    0.00    0.20 3485.48  908.10 1567.46  971.64   20.28    2.10   47.41   11.68    8.18  908.10
     69   9   LEAFU      .103E-03   70.00  196.50    0.08    0.00    0.00    0.00    0.20 3485.48 1024.00 1192.13 1141.64    0.35    0.03    4.78    8.10    5.67 1022.13
     70   9   LEAFU      .410E-03   70.00  196.50    0.31    0.00    0.00    0.00    0.20 3485.48 1023.57 1193.52 1141.40    2.70    0.06   19.98    8.05    5.64 1023.25
     71   9   FAGASA     .195E-02   70.00   97.20    4.68    0.00    0.00    0.00    0.20 3485.48  935.57 1514.09  989.83    8.66    2.15   40.85   10.82    7.57  935.57
     72   9   LEAFU      .103E-03   70.00  196.50    0.36    0.00    0.00    0.00    0.20 3485.48 1023.50 1193.73 1141.36    2.63    0.07   19.58    8.06    5.64 1023.22
     73   9   LEAFU      .185E-02   70.00  196.50    1.28    0.00    0.00    0.00    0.20 3485.48 1022.03 1199.70 1140.37   14.27    0.19   32.96    8.07    5.65 1022.00
     74   9   FAGASA     .144E-02   70.00   97.20    3.09    0.00    0.00    0.00    0.20 3485.48  950.99 1477.90 1005.15    6.36    2.08   38.81    9.53    6.67  950.99
     75  10   LEAFU      .205E-03   70.00  196.50    0.14    0.00    0.00    0.00    0.20 3485.48 1023.93 1192.33 1141.64    0.89    0.04    9.87    8.08    5.66 1022.94
     76  10   LEAFU      .718E-03   70.00  196.50    0.31    0.00    0.00    0.00    0.20 3485.48 1023.59 1193.41 1141.45    2.89    0.06   20.81    8.05    5.63 1023.27
     77  10   LEAFU      .108E-01   70.00  196.50    2.17    0.00    0.00    0.00    0.20 3485.48 1021.59 1202.19 1139.89   29.93    0.25   36.02    8.10    5.67 1021.58
     78  10   FAGASA     .476E-01   70.00   97.20    7.94    0.00    0.00    0.00    0.20 3485.48  893.47 1595.17  965.16   18.92    2.09   46.56   11.85    8.30  893.47
     79  10   LEAFU      .113E-02   77.00  196.50    2.12    0.00    0.00    0.00    0.20 3485.48 1346.46  920.15 1141.17    4.90    0.69   21.85   13.04    9.13 1346.46
     80  10   FAGASA     .718E-03   77.00   97.20    1.67    0.00    0.00    0.00    0.20 3485.48 1318.51 1034.43 1049.56    1.28    0.72   14.24    9.69    6.78 1318.51
     81  10   LEAFU      .103E-03   77.00  196.50    0.46    0.00    0.00    0.00    0.20 3485.48 1352.13  889.98 1146.96    0.73    0.12    6.59   12.41    8.69 1351.81
     82  10   LEAFU      .328E-02   77.00  196.50    2.69    0.00    0.00    0.00    0.20 3485.48 1350.37  899.03 1145.29    7.45    0.30   27.39   12.47    8.73 1350.36
     83  10   FAGASA     .923E-03   77.00   97.20    2.36    0.00    0.00    0.00    0.20 3485.48 1310.12 1059.97 1046.24    1.72    1.12   17.50   10.27    7.19 1310.12
     84  10   LEAFU      .431E-02   77.00  196.50    1.69    0.00    0.00    0.00    0.20 3485.48 1347.44  916.11 1142.07    4.65    0.63   21.28   12.94    9.06 1347.44
     85  11   OLOAVA     .103E-03   55.00  149.80    0.36    0.00    0.00    0.00    0.20 3485.48  511.20 1677.47 1141.87    0.45    0.12   10.07    8.85    6.19  511.11
     86  11   OLOAVA     .156E-01   55.00  149.80    5.46    0.00    0.00    0.00    0.20 3485.48  481.91 1857.79 1100.74   11.02    3.09   50.06   11.08    7.76  481.91
     87  11   LEAFU      .103E-03   70.00  196.50    0.15    0.00    0.00    0.00    0.20 3485.48 1023.90 1192.45 1141.59    0.89    0.04    9.70    8.09    5.66 1022.98
     88  11   LEAFU      .923E-03   70.00  196.50    0.31    0.00    0.00    0.00    0.20 3485.48 1023.73 1192.97 1141.51    2.77    0.05   20.77    8.04    5.63 1023.19
     89  11   LEAFU      .216E-01   70.00  196.50    2.73    0.00    0.00    0.00    0.20 3485.48 1021.34 1203.62 1139.56   40.77    0.28   37.11    8.12    5.69 1021.33
     90  11   FAGASA     .835E-01   70.00   97.20    8.91    0.00    0.00    0.00    0.20 3485.48  876.19 1627.28  958.55   22.20    2.14   47.94   11.98    8.38  876.19
     91  11   LEAFU      .226E-02   70.00  196.50    2.45    0.00    0.00    0.00    0.20 3485.48 1015.42 1250.59 1129.73   24.91    1.04   34.78    9.19    6.44 1015.42
     92  11   FAGASA     .718E-03   70.00   97.20    3.15    0.00    0.00    0.00    0.20 3485.48  950.39 1479.75 1004.50    5.91    2.09   37.88    9.60    6.72  950.39
     93  11   LEAFU      .718E-03   70.00  196.50    2.09    0.00    0.00    0.00    0.20 3485.48 1018.17 1226.16 1134.60   19.68    0.71   33.89    8.68    6.08 1018.17
     94  11   FAGASA     .103E-03   70.00   97.20    5.56    0.00    0.00    0.00    0.20 3485.48  925.83 1533.99  982.35    6.81    2.16   37.91   11.28    7.89  925.83
     95  11   OLOAVA     .103E-02   77.00  149.80    1.73    0.00  177.79    0.00    0.20 3485.48 1353.06  993.61 1058.43   25.16   11.64   86.57   26.39    9.17 1353.06



                AVE MONTHLY BASIN VALUES
                   SNOW                      WATER               SED
  MON     RAIN     FALL   SURF Q    LAT Q    YIELD       ET    YIELD      PET
          (MM)     (MM)     (MM)     (MM)     (MM)     (MM)   (T/HA)     (MM)
    1   573.80     0.00   168.94   263.54   448.28    93.23     9.93   128.92
    2   248.15     0.00    57.81   117.01   192.33    84.47     1.56   125.51
    3   158.30     0.00    19.86    56.82    92.52   108.85     0.12   141.31
    4   352.75     0.00    55.78   149.12   213.08    91.91     0.35   122.56
    5   177.95     0.00    21.93    81.73   111.85    80.81     0.11   137.51
    6   251.80     0.00    68.59    99.23   175.94    71.55     0.51   113.36
    7   488.95     0.00   230.93   148.86   388.61    70.86     1.67   107.29
    8   292.00     0.00    86.21   127.56   225.90    75.18     0.79   123.66
    9   138.15     0.00    14.63    53.38    78.05    72.54     0.17   144.03
   10   162.50     0.00    32.39    57.67    96.38    66.61     0.59   170.07
   11   256.55     0.00    41.74   112.79   159.50    82.74     0.94   142.36
   12   380.10     0.00    94.91   161.54   264.93    99.04     5.46   146.63

     AVE ANNUAL BASIN STRESS DAYS
               WATER STRESS DAYS =     2.87
               TEMPERATURE STRESS DAYS =     0.14
               NITROGEN STRESS DAYS =     8.45
               PHOSPHORUS STRESS DAYS =     0.06
               AERATION STRESS DAYS =     0.00
1
    SWAT Dec 23 2016    VER 2016/Rev 664                                            

    General Input/Output section (file.cio):                                        
    2/12/2020 14:37:37 QSWAT Workflow v1.5.2                                        
                                                                                    
         AVE ANNUAL BASIN VALUES

              PRECIP =   3485.5 MM
              SNOW FALL =    0.00 MM
              SNOW MELT =     0.00 MM
              SUBLIMATION =     0.00 MM
              SURFACE RUNOFF Q =   895.23 MM
              LATERAL SOIL Q = 1431.53 MM
              TILE Q =     0.00 MM
              GROUNDWATER (SHAL AQ) Q =   116.74 MM
              GROUNDWATER (DEEP AQ) Q =     7.75 MM
              REVAP (SHAL AQ => SOIL/PLANTS) =   32.06 MM
              DEEP AQ RECHARGE =     7.52 MM
              TOTAL AQ RECHARGE =  150.34 MM
              TOTAL WATER YLD =  2451.24 MM
              PERCOLATION OUT OF SOIL =  153.55 MM
              ET =    997.9 MM
              PET =   1603.1MM
              TRANSMISSION LOSSES =     0.00 MM
              SEPTIC INFLOW =       0.00 MM
              TOTAL SEDIMENT LOADING =     22.34 T/HA
              TILE FROM IMPOUNDED WATER =     0.000 (MM)
              EVAPORATION FROM IMPOUNDED WATER =     0.000 (MM)
              SEEPAGE INTO SOIL FROM IMPOUNDED WATER =    0.000 (MM)
              OVERFLOW FROM IMPOUNDED WATER =    0.000 (MM)
1
    SWAT Dec 23 2016    VER 2016/Rev 664                                            

    General Input/Output section (file.cio):                                        
    2/12/2020 14:37:37 QSWAT Workflow v1.5.2                                        
                                                                                    
              AVE ANNUAL BASIN VALUES


              NUTRIENTS
                   ORGANIC N =    48.009 (KG/HA)
                   ORGANIC P =     6.028 (KG/HA)
                   NO3 YIELD (SQ) =     0.485 (KG/HA)
                   NO3 YIELD (LAT) =    2.872 (KG/HA)
                   NO3 YIELD (TILE) =    0.000 (KG/HA)
                   SOLP YIELD (TILE) =    0.000(KG/HA)
                   SOLP YIELD (SURF INLET RISER) =    0.000 (KG/HA)
                   SOL P YIELD =    0.067 (KG/HA)
                   NO3 LEACHED =     2.033 (KG/HA)
                   P LEACHED =     0.058 (KG/HA)
                   N UPTAKE =    20.449 (KG/HA)
                   P UPTAKE =    4.557 (KG/HA)
                   NO3 YIELD (GWQ) =     0.026 (KG/HA)
                   ACTIVE TO SOLUTION P FLOW =        -1.991 (KG/HA)
                   ACTIVE TO STABLE P FLOW =        -1.066 (KG/HA)
                   N FERTILIZER APPLIED =    14.319 (KG/HA)
                   P FERTILIZER APPLIED =     0.000 (KG/HA)
                   N FIXATION =     0.000 (KG/HA)
                   DENITRIFICATION =     0.000 (KG/HA)
                   HUMUS MIN ON ACTIVE ORG N =    13.989 (KG/HA)
                   ACTIVE TO STABLE ORG N =    -7.229 (KG/HA)
                   HUMUS MIN ON ACTIVE ORG P =    2.394 (KG/HA)
                   MIN FROM FRESH ORG N =    3.765 (KG/HA)
                   MIN FROM FRESH ORG P =    0.899 (KG/HA)
                   NO3 IN RAINFALL =     0.000 (KG/HA)
                   INITIAL NO3 IN SOIL =      36.429 (KG/HA)
                   FINAL NO3 IN SOIL =         5.919 (KG/HA)
                   INITIAL ORG N IN SOIL =   11240.459 (KG/HA)
                   FINAL ORG N IN SOIL =     10692.273 (KG/HA)
                   INITIAL MIN P IN SOIL =    1897.514 (KG/HA)
                   FINAL MIN P IN SOIL =      1841.183 (KG/HA)
                   INITIAL ORG P IN SOIL =    1376.957 (KG/HA)
                   FINAL ORG P IN SOIL =    1306.820 (KG/HA)
                   NO3 IN FERT =    14.319 (KG/HA)
                   AMMONIA IN FERT =     0.000 (KG/HA)
                   ORG N IN FERT =     0.000 (KG/HA)
                   MINERAL P IN FERT =     0.000 (KG/HA)
                   ORG P IN FERT =     0.000 (KG/HA)
                   N REMOVED IN YIELD =    15.268 (KG/HA)
                   P REMOVED IN YIELD =     3.284 (KG/HA)
                   AMMONIA VOLATILIZATION =     0.000 (KG/HA)
                   AMMONIA NITRIFICATION =      0.000 (KG/HA)
                   NO3 EVAP-LAYER 2 TO 1 =    5.477

                   DIE-GRO P Q =           0.0 (No/M2)
                   DIE-GRO LP Q =           0.0 (No/M2)
                   DIE-GRO P SED =          0.0 (No/M2)
                   DIE-GRO LP SED =          0.0 (No/M2)
                   BACT P RUNOFF =          0.0 (No/M2)
                   BACT LP RUNOFF =          0.0 (No/M2)
                   BACT P SEDIMENT =          0.0 (No/M2)
                   BACT LP SEDIMENT =          0.0 (No/M2)
                   BACT P INCORP =          0.0 (No/M2)
                   BACT LP INCORP =          0.0 (No/M2)

                   NITRATE SEPTIC =         0.00 (kg/ha)
                   AMMONIA SEPTIC =         0.00 (kg/ha)
                   ORG N SEPTIC =         0.00 (kg/ha)
                   FRESH ORGN SEPTIC =         0.00 (kg/ha)
                   ORG P SEPTIC =         0.00 (kg/ha)
                   FRESH ORGP SEPTIC =         0.00 (kg/ha)
                   SOL P SEPTIC =         0.00 (kg/ha)
                   BOD SEPTIC =         0.00 (kg/ha)
