1
    SWAT Dec 23 2016    VER 2016/Rev 664                                                                 0/ 0/   0      0: 0: 0

    General Input/Output section (file.cio):                                        
    2/12/2020 14:37:37 QSWAT Workflow v1.5.2                                        
                                                                                    


       SUB      GIS  MON   AREAkm2  PRECIPmm SNOMELTmm     PETmm      ETmm      SWmm    PERCmm    SURQmm    GW_Qmm    WYLDmm  SYLDt/ha ORGNkg/ha ORGPkg/haNSURQkg/ha SOLPkg/ha SEDPkg/ha LAT Q(mm)LATNO3kg/hGWNO3kg/haCHOLAmic/LCBODU mg/L DOXQ mg/L TNO3kg/ha   QTILEmm TVAPkg/ha
BIGSUB   1        0    1.35860E+00 0.269E+02 0.000E+00 0.233E+01 0.231E+01 0.103E+03 0.912E+00 0.351E+01 0.379E+00 0.148E+02 0.268E+00 0.603E+00 0.737E-01 0.334E-03 0.266E-03 0.588E-01 0.108E+02 0.146E-01 0.706E-04 .19137E-02 0.217E+02 0.945E+00 0.000E+00 0.000E+00 0.000E+00
BIGSUB   2        0    1.32997E+00 0.269E+02 0.000E+00 0.233E+01 0.227E+01 0.115E+03 0.908E+00 0.417E+01 0.437E+00 0.157E+02 0.308E+00 0.724E+00 0.892E-01 0.908E-03 0.566E-03 0.703E-01 0.110E+02 0.263E-01 0.795E-04 .43586E-02 0.442E+02 0.981E+00 0.000E+00 0.000E+00 0.000E+00
BIGSUB   3        0    1.49752E+00 0.269E+02 0.000E+00 0.233E+01 0.226E+01 0.115E+03 0.361E+01 0.493E+01 0.121E+01 0.145E+02 0.320E+00 0.750E+00 0.932E-01 0.109E-02 0.700E-03 0.734E-01 0.828E+01 0.184E-01 0.351E-03 .79025E-02 0.615E+02 0.819E+00 0.000E+00 0.000E+00 0.000E+00
BIGSUB   4        0    1.34608E+00 0.269E+02 0.000E+00 0.233E+01 0.231E+01 0.922E+02 0.000E+00 0.435E+01 0.169E+00 0.147E+02 0.266E+00 0.667E+00 0.816E-01 0.358E-03 0.330E-03 0.651E-01 0.102E+02 0.128E-01 0.765E-05 .23350E-02 0.237E+02 0.871E+00 0.000E+00 0.000E+00 0.000E+00
BIGSUB   5        0    1.24789E+00 0.269E+02 0.000E+00 0.233E+01 0.231E+01 0.926E+02 0.182E+00 0.429E+01 0.540E-01 0.146E+02 0.309E+00 0.698E+00 0.853E-01 0.396E-03 0.316E-03 0.682E-01 0.103E+02 0.115E-01 0.198E-04 .24077E-02 0.261E+02 0.869E+00 0.000E+00 0.000E+00 0.000E+00
BIGSUB   6        0    1.21516E+00 0.269E+02 0.000E+00 0.233E+01 0.229E+01 0.994E+02 0.255E+00 0.396E+01 0.779E-01 0.149E+02 0.254E+00 0.599E+00 0.732E-01 0.568E-03 0.366E-03 0.584E-01 0.109E+02 0.165E-01 0.212E-04 .20136E-02 0.214E+02 0.933E+00 0.000E+00 0.000E+00 0.000E+00
BIGSUB   7        0    1.52122E-01 0.269E+02 0.000E+00 0.233E+01 0.231E+01 0.908E+02 0.110E+00 0.422E+01 0.286E-01 0.147E+02 0.298E+00 0.685E+00 0.837E-01 0.417E-03 0.317E-03 0.670E-01 0.104E+02 0.987E-02 0.953E-05 .22527E-02 0.247E+02 0.881E+00 0.000E+00 0.000E+00 0.000E+00
BIGSUB   8        0    1.51507E-01 0.269E+02 0.000E+00 0.233E+01 0.231E+01 0.914E+02 0.922E+00 0.424E+01 0.240E+00 0.144E+02 0.252E+00 0.626E+00 0.765E-01 0.402E-03 0.355E-03 0.610E-01 0.991E+01 0.109E-01 0.797E-04 .21239E-02 0.219E+02 0.858E+00 0.000E+00 0.000E+00 0.000E+00
BIGSUB   9        0    1.22296E+00 0.269E+02 0.000E+00 0.233E+01 0.231E+01 0.947E+02 0.437E+00 0.432E+01 0.138E+00 0.145E+02 0.287E+00 0.674E+00 0.825E-01 0.371E-03 0.323E-03 0.659E-01 0.100E+02 0.116E-01 0.503E-04 .24411E-02 0.252E+02 0.855E+00 0.000E+00 0.000E+00 0.000E+00
BIGSUB  10        0    1.69770E-01 0.269E+02 0.000E+00 0.233E+01 0.227E+01 0.122E+03 0.375E+01 0.506E+01 0.108E+01 0.136E+02 0.252E+00 0.552E+00 0.675E-01 0.548E-03 0.577E-03 0.544E-01 0.740E+01 0.825E-02 0.305E-03 .26255E-02 0.244E+02 0.773E+00 0.000E+00 0.000E+00 0.000E+00
BIGSUB  11        0    1.12671E+00 0.269E+02 0.000E+00 0.233E+01 0.231E+01 0.119E+03 0.257E+01 0.398E+01 0.845E+00 0.140E+02 0.328E+00 0.638E+00 0.781E-01 0.356E-03 0.296E-03 0.631E-01 0.916E+01 0.108E-01 0.298E-03 .31341E-02 0.308E+02 0.843E+00 0.000E+00 0.000E+00 0.000E+00
BIGSUB   1        0    2.35860E+00 0.100E+01 0.000E+00 0.390E+01 0.313E+01 0.101E+03 0.214E-03 0.156E-02 0.377E+00 0.335E+01 0.129E-09 0.297E-04 0.364E-05 0.916E-07 0.440E-06 0.259E-05 0.295E+01 0.328E-02 0.691E-04 .75848E-08 0.000E+00 0.278E+00 0.000E+00 0.000E+00 0.000E+00
BIGSUB   2        0    2.32997E+00 0.100E+01 0.000E+00 0.390E+01 0.318E+01 0.113E+03 0.367E-03 0.319E-02 0.434E+00 0.259E+01 0.483E-09 0.148E-03 0.183E-04 0.954E-06 0.144E-05 0.131E-04 0.213E+01 0.246E-02 0.780E-04 .10836E-06 0.000E+00 0.215E+00 0.000E+00 0.000E+00 0.000E+00
BIGSUB   3        0    2.49752E+00 0.100E+01 0.000E+00 0.389E+01 0.317E+01 0.113E+03 0.329E-05 0.943E-02 0.120E+01 0.360E+01 0.334E-09 0.125E-02 0.153E-03 0.157E-05 0.120E-05 0.117E-03 0.234E+01 0.401E-02 0.345E-03 .12714E-05 0.000E+00 0.299E+00 0.000E+00 0.000E+00 0.000E+00
BIGSUB   4        0    2.34608E+00 0.100E+01 0.000E+00 0.390E+01 0.307E+01 0.901E+02 0.000E+00 0.100E-05 0.169E+00 0.368E+01 0.289E-10 0.596E-07 0.745E-08 0.100E-08 0.100E-08 0.845E-08 0.350E+01 0.439E-02 0.749E-05 .17913E-21 0.000E+00 0.305E+00 0.000E+00 0.000E+00 0.000E+00
BIGSUB   5        0    2.24789E+00 0.100E+01 0.000E+00 0.390E+01 0.307E+01 0.905E+02 0.363E-03 0.863E-03 0.537E-01 0.359E+01 0.234E-09 0.409E-04 0.501E-05 0.471E-07 0.124E-06 0.408E-05 0.353E+01 0.395E-02 0.194E-04 .50148E-08 0.000E+00 0.298E+00 0.000E+00 0.000E+00 0.000E+00
BIGSUB   6        0    2.21516E+00 0.100E+01 0.000E+00 0.390E+01 0.310E+01 0.973E+02 0.648E-04 0.203E-02 0.777E-01 0.317E+01 0.544E-09 0.365E-04 0.448E-05 0.115E-06 0.481E-06 0.353E-05 0.308E+01 0.407E-02 0.209E-04 .96339E-08 0.000E+00 0.263E+00 0.000E+00 0.000E+00 0.000E+00
BIGSUB   7        0    2.52122E-01 0.100E+01 0.000E+00 0.390E+01 0.306E+01 0.887E+02 0.200E-03 0.572E-02 0.285E-01 0.362E+01 0.337E-09 0.999E-09 0.999E-09 0.285E-06 0.149E-05 0.200E-08 0.358E+01 0.339E-02 0.935E-05 .29446E-09 0.000E+00 0.301E+00 0.000E+00 0.000E+00 0.000E+00
BIGSUB   8        0    2.51507E-01 0.100E+01 0.000E+00 0.390E+01 0.307E+01 0.893E+02 0.121E-02 0.429E-01 0.239E+00 0.370E+01 0.502E-09 0.313E-03 0.383E-04 0.212E-05 0.111E-04 0.289E-04 0.341E+01 0.374E-02 0.782E-04 .31162E-06 0.000E+00 0.307E+00 0.000E+00 0.000E+00 0.000E+00
BIGSUB   9        0    2.22296E+00 0.100E+01 0.000E+00 0.390E+01 0.308E+01 0.926E+02 0.575E-03 0.230E-02 0.137E+00 0.360E+01 0.445E-09 0.755E-04 0.925E-05 0.117E-06 0.413E-06 0.760E-05 0.345E+01 0.400E-02 0.493E-04 .32361E-08 0.000E+00 0.299E+00 0.000E+00 0.000E+00 0.000E+00
BIGSUB  10        0    2.69770E-01 0.100E+01 0.000E+00 0.390E+01 0.312E+01 0.119E+03 0.223E-02 0.751E-02 0.107E+01 0.377E+01 0.140E-08 0.388E-03 0.475E-04 0.511E-06 0.110E-05 0.392E-04 0.264E+01 0.307E-02 0.300E-03 .36251E-07 0.000E+00 0.313E+00 0.000E+00 0.000E+00 0.000E+00
BIGSUB  11        0    2.12671E+00 0.100E+01 0.000E+00 0.390E+01 0.316E+01 0.117E+03 0.136E-02 0.520E-02 0.840E+00 0.341E+01 0.847E-09 0.389E-03 0.477E-04 0.260E-06 0.600E-06 0.396E-04 0.253E+01 0.249E-02 0.292E-03 .38703E-07 0.000E+00 0.283E+00 0.000E+00 0.000E+00 0.000E+00
BIGSUB   1        0    3.35860E+00 0.155E+02 0.000E+00 0.471E+01 0.398E+01 0.102E+03 0.687E+00 0.530E+00 0.375E+00 0.836E+01 0.396E-01 0.862E-01 0.105E-01 0.104E-03 0.380E-04 0.843E-02 0.743E+01 0.118E-01 0.679E-04 .23018E-04 0.925E+00 0.643E+00 0.000E+00 0.000E+00 0.000E+00
BIGSUB   2        0    3.32997E+00 0.155E+02 0.000E+00 0.471E+01 0.399E+01 0.114E+03 0.850E+00 0.802E+00 0.433E+00 0.881E+01 0.574E-01 0.134E+00 0.166E-01 0.439E-03 0.112E-03 0.130E-01 0.756E+01 0.196E-01 0.771E-04 .31632E-03 0.518E+01 0.661E+00 0.000E+00 0.000E+00 0.000E+00
BIGSUB   3        0    3.49752E+00 0.155E+02 0.000E+00 0.471E+01 0.398E+01 0.114E+03 0.241E+01 0.114E+01 0.120E+01 0.803E+01 0.722E-01 0.163E+00 0.203E-01 0.623E-03 0.154E-03 0.160E-01 0.565E+01 0.136E-01 0.342E-03 .11595E-02 0.116E+02 0.569E+00 0.000E+00 0.000E+00 0.000E+00
BIGSUB   4        0    3.34608E+00 0.155E+02 0.000E+00 0.471E+01 0.394E+01 0.919E+02 0.000E+00 0.707E+00 0.169E+00 0.805E+01 0.416E-01 0.104E+00 0.128E-01 0.116E-03 0.527E-04 0.102E-01 0.716E+01 0.987E-02 0.731E-05 .32288E-04 0.111E+01 0.603E+00 0.000E+00 0.000E+00 0.000E+00
BIGSUB   5        0    3.24789E+00 0.155E+02 0.000E+00 0.472E+01 0.393E+01 0.919E+02 0.120E+00 0.678E+00 0.536E-01 0.809E+01 0.471E-01 0.106E+00 0.130E-01 0.130E-03 0.495E-04 0.104E-01 0.735E+01 0.105E-01 0.192E-04 .29967E-04 0.114E+01 0.610E+00 0.000E+00 0.000E+00 0.000E+00
BIGSUB   6        0    3.21516E+00 0.155E+02 0.000E+00 0.472E+01 0.394E+01 0.987E+02 0.169E+00 0.626E+00 0.776E-01 0.830E+01 0.378E-01 0.885E-01 0.108E-01 0.201E-03 0.576E-04 0.865E-02 0.759E+01 0.131E-01 0.207E-04 .25426E-04 0.941E+00 0.635E+00 0.000E+00 0.000E+00 0.000E+00
BIGSUB   7        0    3.52122E-01 0.155E+02 0.000E+00 0.472E+01 0.392E+01 0.899E+02 0.604E-01 0.656E+00 0.284E-01 0.825E+01 0.445E-01 0.103E+00 0.125E-01 0.136E-03 0.488E-04 0.100E-01 0.757E+01 0.110E-01 0.924E-05 .25765E-04 0.103E+01 0.625E+00 0.000E+00 0.000E+00 0.000E+00
BIGSUB   8        0    3.51507E-01 0.155E+02 0.000E+00 0.472E+01 0.393E+01 0.906E+02 0.507E+00 0.681E+00 0.238E+00 0.804E+01 0.381E-01 0.950E-01 0.116E-01 0.132E-03 0.586E-04 0.926E-02 0.711E+01 0.103E-01 0.773E-04 .25844E-04 0.946E+00 0.608E+00 0.000E+00 0.000E+00 0.000E+00
BIGSUB   9        0    3.22296E+00 0.155E+02 0.000E+00 0.472E+01 0.394E+01 0.941E+02 0.299E+00 0.690E+00 0.137E+00 0.798E+01 0.440E-01 0.104E+00 0.127E-01 0.121E-03 0.509E-04 0.101E-01 0.715E+01 0.101E-01 0.487E-04 .31702E-04 0.113E+01 0.600E+00 0.000E+00 0.000E+00 0.000E+00
BIGSUB  10        0    3.69770E-01 0.155E+02 0.000E+00 0.472E+01 0.392E+01 0.120E+03 0.252E+01 0.955E+00 0.107E+01 0.748E+01 0.389E-01 0.847E-01 0.104E-01 0.284E-03 0.124E-03 0.836E-02 0.540E+01 0.808E-02 0.298E-03 .37462E-04 0.112E+01 0.557E+00 0.000E+00 0.000E+00 0.000E+00
BIGSUB  11        0    3.12671E+00 0.155E+02 0.000E+00 0.472E+01 0.398E+01 0.118E+03 0.178E+01 0.632E+00 0.838E+00 0.789E+01 0.499E-01 0.950E-01 0.116E-01 0.124E-03 0.470E-04 0.943E-02 0.638E+01 0.982E-02 0.288E-03 .48329E-04 0.146E+01 0.597E+00 0.000E+00 0.000E+00 0.000E+00
BIGSUB   1        0    4.35860E+00 0.640E+01 0.000E+00 0.574E+01 0.462E+01 0.101E+03 0.106E+00 0.259E-03 0.373E+00 0.427E+01 0.129E-09 0.486E-06 0.597E-07 0.237E-07 0.673E-07 0.455E-07 0.388E+01 0.418E-02 0.667E-04 .27360E-10 0.000E+00 0.349E+00 0.000E+00 0.000E+00 0.000E+00
BIGSUB   2        0    4.32997E+00 0.640E+01 0.000E+00 0.574E+01 0.463E+01 0.113E+03 0.141E+00 0.856E-02 0.430E+00 0.388E+01 0.483E-09 0.107E-02 0.132E-03 0.120E-04 0.154E-05 0.103E-03 0.342E+01 0.556E-02 0.761E-04 .20548E-05 0.499E-08 0.317E+00 0.000E+00 0.000E+00 0.000E+00
BIGSUB   3        0    4.49752E+00 0.640E+01 0.000E+00 0.574E+01 0.461E+01 0.113E+03 0.522E+00 0.440E-01 0.119E+01 0.434E+01 0.334E-09 0.492E-02 0.608E-03 0.509E-04 0.519E-05 0.471E-03 0.306E+01 0.540E-02 0.338E-03 .10808E-04 0.206E-07 0.355E+00 0.000E+00 0.000E+00 0.000E+00
BIGSUB   4        0    4.34608E+00 0.640E+01 0.000E+00 0.574E+01 0.457E+01 0.911E+02 0.000E+00 0.100E-05 0.169E+00 0.437E+01 0.289E-10 0.149E-07 0.186E-08 0.100E-08 0.100E-08 0.200E-08 0.419E+01 0.426E-02 0.712E-05 .33329E-22 0.000E+00 0.357E+00 0.000E+00 0.000E+00 0.000E+00
BIGSUB   5        0    4.24789E+00 0.640E+01 0.000E+00 0.573E+01 0.455E+01 0.910E+02 0.284E-01 0.166E-03 0.534E-01 0.436E+01 0.234E-09 0.595E-05 0.728E-06 0.271E-07 0.256E-07 0.597E-06 0.430E+01 0.429E-02 0.190E-04 .12670E-10 0.000E+00 0.357E+00 0.000E+00 0.000E+00 0.000E+00
BIGSUB   6        0    4.21516E+00 0.640E+01 0.000E+00 0.573E+01 0.457E+01 0.979E+02 0.398E-01 0.439E-03 0.774E-01 0.413E+01 0.544E-09 0.287E-05 0.352E-06 0.985E-07 0.104E-06 0.292E-06 0.404E+01 0.471E-02 0.204E-04 .13769E-10 0.000E+00 0.338E+00 0.000E+00 0.000E+00 0.000E+00
BIGSUB   7        0    4.52122E-01 0.640E+01 0.000E+00 0.573E+01 0.453E+01 0.890E+02 0.144E-01 0.123E-02 0.283E-01 0.448E+01 0.337E-09 0.999E-09 0.999E-09 0.109E-06 0.320E-06 0.200E-08 0.444E+01 0.442E-02 0.912E-05 .68512E-11 0.000E+00 0.366E+00 0.000E+00 0.000E+00 0.000E+00
BIGSUB   8        0    4.51507E-01 0.640E+01 0.000E+00 0.573E+01 0.455E+01 0.897E+02 0.121E+00 0.118E-01 0.237E+00 0.443E+01 0.502E-09 0.425E-04 0.520E-05 0.932E-06 0.304E-05 0.393E-05 0.416E+01 0.419E-02 0.763E-04 .46549E-08 0.000E+00 0.362E+00 0.000E+00 0.000E+00 0.000E+00
BIGSUB   9        0    4.22296E+00 0.640E+01 0.000E+00 0.573E+01 0.456E+01 0.933E+02 0.674E-01 0.634E-03 0.136E+00 0.432E+01 0.445E-09 0.113E-04 0.139E-05 0.583E-07 0.132E-06 0.114E-05 0.418E+01 0.414E-02 0.481E-04 .26337E-10 0.000E+00 0.354E+00 0.000E+00 0.000E+00 0.000E+00
BIGSUB  10        0    4.69770E-01 0.640E+01 0.000E+00 0.572E+01 0.453E+01 0.120E+03 0.625E+00 0.282E-02 0.107E+01 0.436E+01 0.140E-08 0.579E-04 0.709E-05 0.132E-05 0.533E-06 0.589E-05 0.324E+01 0.357E-02 0.295E-03 .89436E-10 0.000E+00 0.357E+00 0.000E+00 0.000E+00 0.000E+00
BIGSUB  11        0    4.12671E+00 0.640E+01 0.000E+00 0.573E+01 0.460E+01 0.117E+03 0.401E+00 0.996E-03 0.835E+00 0.428E+01 0.847E-09 0.632E-04 0.774E-05 0.193E-06 0.125E-06 0.644E-05 0.341E+01 0.356E-02 0.284E-03 .21137E-09 0.000E+00 0.350E+00 0.000E+00 0.000E+00 0.000E+00
BIGSUB   1        0    5.35860E+00 0.257E+02 0.000E+00 0.574E+01 0.464E+01 0.102E+03 0.132E+01 0.341E+01 0.373E+00 0.157E+02 0.481E+00 0.919E+00 0.112E+00 0.290E-03 0.250E-03 0.896E-01 0.119E+02 0.204E-01 0.665E-04 .24706E-02 0.307E+02 0.101E+01 0.000E+00 0.000E+00 0.000E+00
BIGSUB   2        0    5.32997E+00 0.257E+02 0.000E+00 0.574E+01 0.464E+01 0.114E+03 0.162E+01 0.398E+01 0.430E+00 0.168E+02 0.527E+00 0.105E+01 0.129E+00 0.774E-03 0.511E-03 0.102E+00 0.124E+02 0.356E-01 0.763E-04 .47968E-02 0.566E+02 0.107E+01 0.000E+00 0.000E+00 0.000E+00
BIGSUB   3        0    5.49752E+00 0.257E+02 0.000E+00 0.574E+01 0.463E+01 0.114E+03 0.415E+01 0.467E+01 0.119E+01 0.148E+02 0.534E+00 0.105E+01 0.131E+00 0.915E-03 0.621E-03 0.103E+00 0.888E+01 0.238E-01 0.341E-03 .93091E-02 0.811E+02 0.848E+00 0.000E+00 0.000E+00 0.000E+00
BIGSUB   4        0    5.34608E+00 0.257E+02 0.000E+00 0.574E+01 0.459E+01 0.926E+02 0.435E+00 0.431E+01 0.169E+00 0.157E+02 0.485E+00 0.104E+01 0.127E+00 0.294E-03 0.318E-03 0.101E+00 0.112E+02 0.196E-01 0.701E-05 .31425E-02 0.345E+02 0.938E+00 0.000E+00 0.000E+00 0.000E+00
BIGSUB   5        0    5.24789E+00 0.257E+02 0.000E+00 0.573E+01 0.457E+01 0.929E+02 0.196E+00 0.419E+01 0.535E-01 0.155E+02 0.557E+00 0.107E+01 0.131E+00 0.341E-03 0.301E-03 0.105E+00 0.112E+02 0.168E-01 0.190E-04 .31507E-02 0.374E+02 0.932E+00 0.000E+00 0.000E+00 0.000E+00
BIGSUB   6        0    5.21516E+00 0.257E+02 0.000E+00 0.573E+01 0.459E+01 0.997E+02 0.317E+00 0.386E+01 0.776E-01 0.159E+02 0.459E+00 0.921E+00 0.113E+00 0.474E-03 0.347E-03 0.898E-01 0.119E+02 0.217E-01 0.205E-04 .26539E-02 0.308E+02 0.100E+01 0.000E+00 0.000E+00 0.000E+00
BIGSUB   7        0    5.52122E-01 0.257E+02 0.000E+00 0.573E+01 0.456E+01 0.906E+02 0.979E-01 0.409E+01 0.283E-01 0.157E+02 0.534E+00 0.105E+01 0.128E+00 0.372E-03 0.299E-03 0.102E+00 0.116E+02 0.182E-01 0.912E-05 .28326E-02 0.346E+02 0.960E+00 0.000E+00 0.000E+00 0.000E+00
BIGSUB   8        0    5.51507E-01 0.257E+02 0.000E+00 0.573E+01 0.457E+01 0.915E+02 0.821E+00 0.412E+01 0.237E+00 0.152E+02 0.454E+00 0.963E+00 0.118E+00 0.346E-03 0.334E-03 0.939E-01 0.109E+02 0.165E-01 0.763E-04 .27622E-02 0.312E+02 0.920E+00 0.000E+00 0.000E+00 0.000E+00
BIGSUB   9        0    5.22296E+00 0.257E+02 0.000E+00 0.573E+01 0.458E+01 0.952E+02 0.503E+00 0.423E+01 0.136E+00 0.153E+02 0.516E+00 0.104E+01 0.127E+00 0.315E-03 0.308E-03 0.101E+00 0.109E+02 0.160E-01 0.481E-04 .32374E-02 0.362E+02 0.911E+00 0.000E+00 0.000E+00 0.000E+00
BIGSUB  10        0    5.69770E-01 0.257E+02 0.000E+00 0.573E+01 0.455E+01 0.121E+03 0.400E+01 0.480E+01 0.107E+01 0.141E+02 0.441E+00 0.832E+00 0.102E+00 0.460E-03 0.528E-03 0.819E-01 0.821E+01 0.129E-01 0.296E-03 .33089E-02 0.337E+02 0.801E+00 0.000E+00 0.000E+00 0.000E+00
BIGSUB  11        0    5.12671E+00 0.257E+02 0.000E+00 0.573E+01 0.462E+01 0.118E+03 0.310E+01 0.380E+01 0.835E+00 0.150E+02 0.566E+00 0.952E+00 0.117E+00 0.312E-03 0.275E-03 0.941E-01 0.103E+02 0.178E-01 0.284E-03 .38348E-02 0.417E+02 0.923E+00 0.000E+00 0.000E+00 0.000E+00
BIGSUB   1        0    6.35860E+00 0.130E+01 0.000E+00 0.578E+01 0.372E+01 0.999E+02 0.380E-04 0.133E-02 0.372E+00 0.369E+01 0.129E-09 0.400E-04 0.490E-05 0.555E-07 0.366E-06 0.348E-05 0.330E+01 0.503E-02 0.659E-04 .78611E-08 0.000E+00 0.302E+00 0.000E+00 0.000E+00 0.000E+00
BIGSUB   2        0    6.32997E+00 0.130E+01 0.000E+00 0.578E+01 0.382E+01 0.111E+03 0.000E+00 0.301E-02 0.429E+00 0.288E+01 0.483E-09 0.215E-03 0.266E-04 0.896E-06 0.133E-05 0.190E-04 0.243E+01 0.425E-02 0.761E-04 .14586E-06 0.000E+00 0.235E+00 0.000E+00 0.000E+00 0.000E+00
BIGSUB   3        0    6.49752E+00 0.130E+01 0.000E+00 0.578E+01 0.381E+01 0.111E+03 0.000E+00 0.886E-02 0.119E+01 0.384E+01 0.334E-09 0.151E-02 0.184E-03 0.142E-05 0.105E-05 0.141E-03 0.259E+01 0.583E-02 0.341E-03 .14229E-05 0.000E+00 0.314E+00 0.000E+00 0.000E+00 0.000E+00
BIGSUB   4        0    6.34608E+00 0.130E+01 0.000E+00 0.577E+01 0.360E+01 0.902E+02 0.000E+00 0.100E-05 0.524E-01 0.397E+01 0.289E-10 0.119E-06 0.149E-07 0.100E-08 0.100E-08 0.845E-08 0.391E+01 0.675E-02 0.214E-05 .30434E-21 0.000E+00 0.325E+00 0.000E+00 0.000E+00 0.000E+00
BIGSUB   5        0    6.24789E+00 0.130E+01 0.000E+00 0.576E+01 0.359E+01 0.905E+02 0.000E+00 0.783E-03 0.534E-01 0.400E+01 0.234E-09 0.605E-04 0.741E-05 0.369E-07 0.110E-06 0.603E-05 0.393E+01 0.580E-02 0.189E-04 .64035E-08 0.000E+00 0.326E+00 0.000E+00 0.000E+00 0.000E+00
BIGSUB   6        0    6.21516E+00 0.130E+01 0.000E+00 0.577E+01 0.366E+01 0.972E+02 0.576E-04 0.176E-02 0.776E-01 0.352E+01 0.544E-09 0.494E-04 0.605E-05 0.714E-07 0.409E-06 0.478E-05 0.344E+01 0.548E-02 0.205E-04 .98928E-08 0.000E+00 0.288E+00 0.000E+00 0.000E+00 0.000E+00
BIGSUB   7        0    6.52122E-01 0.130E+01 0.000E+00 0.577E+01 0.357E+01 0.882E+02 0.178E-03 0.497E-02 0.283E-01 0.410E+01 0.337E-09 0.441E-04 0.539E-05 0.161E-06 0.128E-05 0.407E-05 0.407E+01 0.627E-02 0.908E-05 .36536E-07 0.000E+00 0.335E+00 0.000E+00 0.000E+00 0.000E+00
BIGSUB   8        0    6.51507E-01 0.130E+01 0.000E+00 0.577E+01 0.359E+01 0.891E+02 0.107E-02 0.382E-01 0.237E+00 0.410E+01 0.502E-09 0.415E-03 0.507E-04 0.127E-05 0.971E-05 0.383E-04 0.381E+01 0.570E-02 0.759E-04 .33900E-06 0.000E+00 0.335E+00 0.000E+00 0.000E+00 0.000E+00
BIGSUB   9        0    6.22296E+00 0.130E+01 0.000E+00 0.576E+01 0.361E+01 0.928E+02 0.165E-04 0.216E-02 0.136E+00 0.397E+01 0.445E-09 0.117E-03 0.143E-04 0.915E-07 0.388E-06 0.117E-04 0.382E+01 0.554E-02 0.478E-04 .13340E-07 0.000E+00 0.325E+00 0.000E+00 0.000E+00 0.000E+00
BIGSUB  10        0    6.69770E-01 0.130E+01 0.000E+00 0.576E+01 0.374E+01 0.118E+03 0.000E+00 0.682E-02 0.107E+01 0.414E+01 0.140E-08 0.555E-03 0.680E-04 0.408E-06 0.977E-06 0.561E-04 0.301E+01 0.476E-02 0.296E-03 .46257E-07 0.000E+00 0.338E+00 0.000E+00 0.000E+00 0.000E+00
BIGSUB  11        0    6.12671E+00 0.130E+01 0.000E+00 0.576E+01 0.379E+01 0.116E+03 0.000E+00 0.472E-02 0.834E+00 0.379E+01 0.847E-09 0.553E-03 0.678E-04 0.202E-06 0.528E-06 0.562E-04 0.291E+01 0.459E-02 0.283E-03 .49394E-07 0.000E+00 0.309E+00 0.000E+00 0.000E+00 0.000E+00
BIGSUB   1        0    7.35860E+00 0.000E+00 0.000E+00 0.576E+01 0.239E+01 0.975E+02 0.625E-07 0.258E-03 0.370E+00 0.149E+01 0.129E-09 0.373E-05 0.457E-06 0.982E-08 0.680E-07 0.336E-06 0.110E+01 0.165E-02 0.651E-04 .13773E-09 0.000E+00 0.123E+00 0.000E+00 0.000E+00 0.000E+00
BIGSUB   2        0    7.32997E+00 0.000E+00 0.000E+00 0.576E+01 0.250E+01 0.109E+03 0.000E+00 0.701E-03 0.428E+00 0.126E+01 0.483E-09 0.159E-04 0.202E-05 0.300E-06 0.394E-06 0.136E-05 0.809E+00 0.134E-02 0.754E-04 .15426E-07 0.000E+00 0.104E+00 0.000E+00 0.000E+00 0.000E+00
BIGSUB   3        0    7.49752E+00 0.000E+00 0.000E+00 0.576E+01 0.249E+01 0.109E+03 0.000E+00 0.252E-03 0.118E+01 0.206E+01 0.334E-09 0.312E-04 0.381E-05 0.419E-07 0.317E-07 0.291E-05 0.822E+00 0.169E-02 0.339E-03 .11862E-08 0.000E+00 0.170E+00 0.000E+00 0.000E+00 0.000E+00
BIGSUB   4        0    7.34608E+00 0.000E+00 0.000E+00 0.575E+01 0.227E+01 0.879E+02 0.000E+00 0.100E-05 0.449E-01 0.140E+01 0.289E-10 0.100E-08 0.100E-08 0.100E-08 0.100E-08 0.200E-08 0.134E+01 0.232E-02 0.180E-05 .40932E-22 0.000E+00 0.116E+00 0.000E+00 0.000E+00 0.000E+00
BIGSUB   5        0    7.24789E+00 0.000E+00 0.000E+00 0.575E+01 0.227E+01 0.883E+02 0.000E+00 0.566E-04 0.533E-01 0.141E+01 0.234E-09 0.274E-05 0.336E-06 0.351E-08 0.104E-07 0.270E-06 0.135E+01 0.200E-02 0.187E-04 .18710E-10 0.000E+00 0.117E+00 0.000E+00 0.000E+00 0.000E+00
BIGSUB   6        0    7.21516E+00 0.000E+00 0.000E+00 0.575E+01 0.234E+01 0.949E+02 0.676E-07 0.240E-03 0.775E-01 0.126E+01 0.544E-09 0.375E-05 0.460E-06 0.860E-08 0.609E-07 0.349E-06 0.118E+01 0.188E-02 0.204E-04 .66199E-10 0.000E+00 0.105E+00 0.000E+00 0.000E+00 0.000E+00
BIGSUB   7        0    7.52122E-01 0.000E+00 0.000E+00 0.575E+01 0.224E+01 0.860E+02 0.322E-06 0.122E-02 0.282E-01 0.143E+01 0.337E-09 0.108E-04 0.133E-05 0.404E-07 0.314E-06 0.100E-05 0.140E+01 0.215E-02 0.899E-05 .68453E-09 0.000E+00 0.118E+00 0.000E+00 0.000E+00 0.000E+00
BIGSUB   8        0    7.51507E-01 0.000E+00 0.000E+00 0.575E+01 0.226E+01 0.868E+02 0.199E-05 0.127E-01 0.237E+00 0.157E+01 0.502E-09 0.102E-03 0.125E-04 0.426E-06 0.327E-05 0.944E-05 0.131E+01 0.196E-02 0.752E-04 .20359E-07 0.000E+00 0.130E+00 0.000E+00 0.000E+00 0.000E+00
BIGSUB   9        0    7.22296E+00 0.000E+00 0.000E+00 0.575E+01 0.229E+01 0.905E+02 0.305E-07 0.531E-03 0.136E+00 0.147E+01 0.445E-09 0.493E-05 0.604E-06 0.225E-07 0.129E-06 0.481E-06 0.132E+01 0.191E-02 0.473E-04 .30340E-09 0.000E+00 0.122E+00 0.000E+00 0.000E+00 0.000E+00
BIGSUB  10        0    7.69770E-01 0.000E+00 0.000E+00 0.574E+01 0.244E+01 0.116E+03 0.000E+00 0.399E-03 0.107E+01 0.226E+01 0.140E-08 0.186E-04 0.228E-05 0.205E-07 0.696E-07 0.183E-05 0.114E+01 0.187E-02 0.294E-03 .14256E-09 0.000E+00 0.187E+00 0.000E+00 0.000E+00 0.000E+00
BIGSUB  11        0    7.12671E+00 0.000E+00 0.000E+00 0.575E+01 0.248E+01 0.113E+03 0.000E+00 0.291E-03 0.832E+00 0.193E+01 0.847E-09 0.200E-04 0.245E-05 0.137E-07 0.426E-07 0.198E-05 0.106E+01 0.168E-02 0.280E-03 .55335E-10 0.000E+00 0.160E+00 0.000E+00 0.000E+00 0.000E+00
BIGSUB   1        0    8.35860E+00 0.000E+00 0.000E+00 0.597E+01 0.199E+01 0.955E+02 0.000E+00 0.603E-04 0.368E+00 0.764E+00 0.129E-09 0.617E-06 0.764E-07 0.293E-08 0.162E-07 0.584E-07 0.376E+00 0.564E-03 0.640E-04 .21801E-11 0.000E+00 0.632E-01 0.000E+00 0.000E+00 0.000E+00
BIGSUB   2        0    8.32997E+00 0.000E+00 0.000E+00 0.597E+01 0.211E+01 0.107E+03 0.000E+00 0.275E-03 0.407E+00 0.705E+00 0.483E-09 0.446E-05 0.572E-06 0.126E-06 0.161E-06 0.379E-06 0.279E+00 0.461E-03 0.732E-04 .16590E-08 0.000E+00 0.583E-01 0.000E+00 0.000E+00 0.000E+00
BIGSUB   3        0    8.49752E+00 0.000E+00 0.000E+00 0.597E+01 0.210E+01 0.107E+03 0.000E+00 0.153E-04 0.118E+01 0.151E+01 0.334E-09 0.144E-05 0.177E-06 0.325E-08 0.273E-08 0.135E-06 0.274E+00 0.545E-03 0.335E-03 .65879E-12 0.000E+00 0.125E+00 0.000E+00 0.000E+00 0.000E+00
BIGSUB   4        0    8.34608E+00 0.000E+00 0.000E+00 0.597E+01 0.188E+01 0.860E+02 0.000E+00 0.100E-05 0.355E-01 0.506E+00 0.289E-10 0.100E-08 0.100E-08 0.100E-08 0.100E-08 0.200E-08 0.462E+00 0.797E-03 0.139E-05 .31243E-21 0.000E+00 0.418E-01 0.000E+00 0.000E+00 0.000E+00
BIGSUB   5        0    8.24789E+00 0.000E+00 0.000E+00 0.597E+01 0.188E+01 0.864E+02 0.000E+00 0.753E-05 0.531E-01 0.528E+00 0.234E-09 0.251E-06 0.316E-07 0.130E-08 0.219E-08 0.263E-07 0.468E+00 0.690E-03 0.185E-04 .67696E-13 0.000E+00 0.436E-01 0.000E+00 0.000E+00 0.000E+00
BIGSUB   6        0    8.21516E+00 0.000E+00 0.000E+00 0.597E+01 0.195E+01 0.930E+02 0.000E+00 0.428E-04 0.774E-01 0.493E+00 0.544E-09 0.557E-06 0.691E-07 0.232E-08 0.116E-07 0.534E-07 0.407E+00 0.651E-03 0.201E-04 .50049E-12 0.000E+00 0.407E-01 0.000E+00 0.000E+00 0.000E+00
BIGSUB   7        0    8.52122E-01 0.000E+00 0.000E+00 0.597E+01 0.185E+01 0.841E+02 0.000E+00 0.301E-03 0.281E-01 0.512E+00 0.337E-09 0.266E-05 0.326E-06 0.107E-07 0.780E-07 0.247E-06 0.480E+00 0.740E-03 0.886E-05 .10863E-10 0.000E+00 0.423E-01 0.000E+00 0.000E+00 0.000E+00
BIGSUB   8        0    8.51507E-01 0.000E+00 0.000E+00 0.597E+01 0.187E+01 0.850E+02 0.000E+00 0.459E-02 0.236E+00 0.706E+00 0.502E-09 0.349E-04 0.427E-05 0.154E-06 0.118E-05 0.322E-05 0.451E+00 0.675E-03 0.741E-04 .10920E-08 0.000E+00 0.583E-01 0.000E+00 0.000E+00 0.000E+00
BIGSUB   9        0    8.22296E+00 0.000E+00 0.000E+00 0.597E+01 0.190E+01 0.886E+02 0.000E+00 0.259E-03 0.134E+00 0.605E+00 0.445E-09 0.763E-06 0.943E-07 0.111E-07 0.665E-07 0.753E-07 0.460E+00 0.668E-03 0.466E-04 .10199E-10 0.000E+00 0.500E-01 0.000E+00 0.000E+00 0.000E+00
BIGSUB  10        0    8.69770E-01 0.000E+00 0.000E+00 0.597E+01 0.207E+01 0.114E+03 0.000E+00 0.479E-04 0.107E+01 0.158E+01 0.140E-08 0.184E-05 0.226E-06 0.319E-08 0.944E-08 0.180E-06 0.469E+00 0.814E-03 0.291E-03 .51509E-12 0.000E+00 0.131E+00 0.000E+00 0.000E+00 0.000E+00
BIGSUB  11        0    8.12671E+00 0.000E+00 0.000E+00 0.597E+01 0.210E+01 0.111E+03 0.000E+00 0.289E-04 0.829E+00 0.128E+01 0.847E-09 0.176E-05 0.216E-06 0.223E-08 0.518E-08 0.175E-06 0.416E+00 0.672E-03 0.276E-03 .97455E-13 0.000E+00 0.106E+00 0.000E+00 0.000E+00 0.000E+00
BIGSUB   1        0    9.35860E+00 0.709E+02 0.000E+00 0.427E+01 0.373E+01 0.104E+03 0.256E+01 0.300E+02 0.369E+00 0.492E+02 0.309E+01 0.682E+01 0.834E+00 0.169E-02 0.234E-02 0.659E+00 0.187E+02 0.310E-01 0.650E-04 .10568E+00 0.548E+03 0.161E+01 0.000E+00 0.000E+00 0.000E+00
BIGSUB   2        0    9.32997E+00 0.709E+02 0.000E+00 0.427E+01 0.373E+01 0.116E+03 0.240E+01 0.315E+02 0.408E+00 0.514E+02 0.300E+01 0.668E+01 0.821E+00 0.494E-02 0.406E-02 0.646E+00 0.195E+02 0.502E-01 0.743E-04 .11390E+00 0.660E+03 0.171E+01 0.000E+00 0.000E+00 0.000E+00
BIGSUB   3        0    9.49752E+00 0.709E+02 0.000E+00 0.427E+01 0.372E+01 0.115E+03 0.662E+01 0.332E+02 0.118E+01 0.478E+02 0.270E+01 0.607E+01 0.749E+00 0.555E-02 0.463E-02 0.590E+00 0.133E+02 0.320E-01 0.341E-03 .12230E+00 0.668E+03 0.127E+01 0.000E+00 0.000E+00 0.000E+00
BIGSUB   4        0    9.34608E+00 0.709E+02 0.000E+00 0.427E+01 0.368E+01 0.935E+02 0.114E+01 0.336E+02 0.425E-01 0.502E+02 0.282E+01 0.641E+01 0.785E+00 0.151E-02 0.243E-02 0.626E+00 0.166E+02 0.306E-01 0.168E-05 .11485E+00 0.525E+03 0.140E+01 0.000E+00 0.000E+00 0.000E+00
BIGSUB   5        0    9.24789E+00 0.709E+02 0.000E+00 0.427E+01 0.368E+01 0.948E+02 0.560E+00 0.333E+02 0.533E-01 0.499E+02 0.333E+01 0.679E+01 0.829E+00 0.177E-02 0.235E-02 0.664E+00 0.165E+02 0.242E-01 0.186E-04 .12087E+00 0.591E+03 0.140E+01 0.000E+00 0.000E+00 0.000E+00
BIGSUB   6        0    9.21516E+00 0.709E+02 0.000E+00 0.427E+01 0.369E+01 0.101E+03 0.815E+00 0.319E+02 0.776E-01 0.507E+02 0.300E+01 0.655E+01 0.800E+00 0.283E-02 0.288E-02 0.635E+00 0.187E+02 0.343E-01 0.204E-04 .10427E+00 0.526E+03 0.161E+01 0.000E+00 0.000E+00 0.000E+00
BIGSUB   7        0    9.52122E-01 0.709E+02 0.000E+00 0.427E+01 0.367E+01 0.927E+02 0.154E+00 0.329E+02 0.282E-01 0.499E+02 0.322E+01 0.670E+01 0.818E+00 0.192E-02 0.236E-02 0.655E+00 0.169E+02 0.219E-01 0.899E-05 .11642E+00 0.567E+03 0.143E+01 0.000E+00 0.000E+00 0.000E+00
BIGSUB   8        0    9.51507E-01 0.709E+02 0.000E+00 0.427E+01 0.368E+01 0.935E+02 0.143E+01 0.328E+02 0.236E+00 0.490E+02 0.271E+01 0.611E+01 0.746E+00 0.181E-02 0.260E-02 0.596E+00 0.159E+02 0.220E-01 0.751E-04 .10838E+00 0.499E+03 0.137E+01 0.000E+00 0.000E+00 0.000E+00
BIGSUB   9        0    9.22296E+00 0.709E+02 0.000E+00 0.427E+01 0.369E+01 0.966E+02 0.125E+01 0.335E+02 0.134E+00 0.498E+02 0.307E+01 0.654E+01 0.800E+00 0.164E-02 0.239E-02 0.640E+00 0.162E+02 0.265E-01 0.469E-04 .11793E+00 0.558E+03 0.138E+01 0.000E+00 0.000E+00 0.000E+00
BIGSUB  10        0    9.69770E-01 0.709E+02 0.000E+00 0.427E+01 0.367E+01 0.123E+03 0.508E+01 0.350E+02 0.107E+01 0.479E+02 0.259E+01 0.522E+01 0.638E+00 0.264E-02 0.348E-02 0.514E+00 0.118E+02 0.155E-01 0.295E-03 .10296E+00 0.482E+03 0.124E+01 0.000E+00 0.000E+00 0.000E+00
BIGSUB  11        0    9.12671E+00 0.709E+02 0.000E+00 0.427E+01 0.372E+01 0.120E+03 0.431E+01 0.315E+02 0.831E+00 0.486E+02 0.351E+01 0.666E+01 0.815E+00 0.185E-02 0.229E-02 0.654E+00 0.162E+02 0.252E-01 0.278E-03 .11868E+00 0.620E+03 0.144E+01 0.000E+00 0.000E+00 0.000E+00
BIGSUB   1        0   10.35860E+00 0.498E+02 0.000E+00 0.414E+01 0.364E+01 0.104E+03 0.360E+01 0.172E+02 0.373E+00 0.406E+02 0.121E-04 0.498E+01 0.608E+00 0.963E-03 0.126E-02 0.482E+00 0.230E+02 0.513E-01 0.677E-04 .38292E-01 0.373E-02 0.343E+01 0.000E+00 0.000E+00 0.000E+00
BIGSUB   2        0   10.32997E+00 0.498E+02 0.000E+00 0.414E+01 0.365E+01 0.116E+03 0.318E+01 0.180E+02 0.413E+00 0.410E+02 0.584E-03 0.484E+01 0.595E+00 0.272E-02 0.216E-02 0.468E+00 0.226E+02 0.658E-01 0.774E-04 .46415E-01 0.212E+00 0.343E+01 0.000E+00 0.000E+00 0.000E+00
BIGSUB   3        0   10.49752E+00 0.498E+02 0.000E+00 0.414E+01 0.364E+01 0.116E+03 0.792E+01 0.194E+02 0.119E+01 0.376E+02 0.334E-02 0.450E+01 0.556E+00 0.304E-02 0.248E-02 0.439E+00 0.169E+02 0.504E-01 0.358E-03 .56374E-01 0.166E+01 0.305E+01 0.000E+00 0.000E+00 0.000E+00
BIGSUB   4        0   10.34608E+00 0.498E+02 0.000E+00 0.413E+01 0.360E+01 0.936E+02 0.211E+01 0.195E+02 0.519E-01 0.413E+02 0.289E-10 0.486E+01 0.595E+00 0.896E-03 0.136E-02 0.474E+00 0.218E+02 0.502E-01 0.218E-05 .43250E-01 0.340E-08 0.350E+01 0.000E+00 0.000E+00 0.000E+00
BIGSUB   5        0   10.24789E+00 0.498E+02 0.000E+00 0.413E+01 0.359E+01 0.948E+02 0.179E+01 0.195E+02 0.538E-01 0.415E+02 0.107E-04 0.514E+01 0.628E+00 0.108E-02 0.132E-02 0.503E+00 0.220E+02 0.494E-01 0.192E-04 .45463E-01 0.287E-02 0.351E+01 0.000E+00 0.000E+00 0.000E+00
BIGSUB   6        0   10.21516E+00 0.498E+02 0.000E+00 0.413E+01 0.361E+01 0.101E+03 0.201E+01 0.184E+02 0.785E-01 0.417E+02 0.237E-04 0.481E+01 0.588E+00 0.166E-02 0.158E-02 0.468E+00 0.232E+02 0.553E-01 0.211E-04 .38727E-01 0.729E-02 0.353E+01 0.000E+00 0.000E+00 0.000E+00
BIGSUB   7        0   10.52122E-01 0.498E+02 0.000E+00 0.413E+01 0.359E+01 0.936E+02 0.995E+00 0.193E+02 0.284E-01 0.415E+02 0.503E-04 0.510E+01 0.623E+00 0.119E-02 0.134E-02 0.498E+00 0.222E+02 0.487E-01 0.930E-05 .43847E-01 0.156E-01 0.351E+01 0.000E+00 0.000E+00 0.000E+00
BIGSUB   8        0   10.51507E-01 0.498E+02 0.000E+00 0.413E+01 0.359E+01 0.936E+02 0.267E+01 0.195E+02 0.239E+00 0.410E+02 0.326E-03 0.470E+01 0.574E+00 0.112E-02 0.154E-02 0.458E+00 0.212E+02 0.478E-01 0.778E-04 .41335E-01 0.100E+00 0.342E+01 0.000E+00 0.000E+00 0.000E+00
BIGSUB   9        0   10.22296E+00 0.498E+02 0.000E+00 0.412E+01 0.359E+01 0.967E+02 0.239E+01 0.195E+02 0.136E+00 0.411E+02 0.139E-04 0.495E+01 0.605E+00 0.986E-03 0.134E-02 0.484E+00 0.214E+02 0.486E-01 0.483E-04 .45035E-01 0.379E-02 0.348E+01 0.000E+00 0.000E+00 0.000E+00
BIGSUB  10        0   10.69770E-01 0.498E+02 0.000E+00 0.412E+01 0.358E+01 0.123E+03 0.719E+01 0.206E+02 0.108E+01 0.375E+02 0.823E-04 0.398E+01 0.486E+00 0.162E-02 0.198E-02 0.392E+00 0.158E+02 0.359E-01 0.305E-03 .44344E-01 0.222E-01 0.317E+01 0.000E+00 0.000E+00 0.000E+00
BIGSUB  11        0   10.12671E+00 0.498E+02 0.000E+00 0.412E+01 0.364E+01 0.121E+03 0.559E+01 0.181E+02 0.838E+00 0.385E+02 0.221E-03 0.484E+01 0.592E+00 0.106E-02 0.125E-02 0.475E+00 0.195E+02 0.418E-01 0.286E-03 .50481E-01 0.592E-01 0.324E+01 0.000E+00 0.000E+00 0.000E+00
BIGSUB   1        0   11.35860E+00 0.531E+02 0.000E+00 0.217E+01 0.215E+01 0.106E+03 0.378E+01 0.195E+02 0.380E+00 0.450E+02 0.267E+01 0.468E+01 0.572E+00 0.649E-03 0.138E-02 0.453E+00 0.252E+02 0.558E-01 0.722E-04 .36465E-01 0.309E+03 0.214E+01 0.000E+00 0.000E+00 0.000E+00
BIGSUB   2        0   11.32997E+00 0.531E+02 0.000E+00 0.217E+01 0.212E+01 0.118E+03 0.362E+01 0.205E+02 0.422E+00 0.455E+02 0.262E+01 0.452E+01 0.555E+00 0.189E-02 0.236E-02 0.437E+00 0.245E+02 0.730E-01 0.825E-04 .43917E-01 0.406E+03 0.211E+01 0.000E+00 0.000E+00 0.000E+00
BIGSUB   3        0   11.49752E+00 0.531E+02 0.000E+00 0.217E+01 0.211E+01 0.117E+03 0.829E+01 0.218E+02 0.121E+01 0.416E+02 0.236E+01 0.416E+01 0.513E+00 0.215E-02 0.268E-02 0.405E+00 0.186E+02 0.538E-01 0.384E-03 .51592E-01 0.431E+03 0.169E+01 0.000E+00 0.000E+00 0.000E+00
BIGSUB   4        0   11.34608E+00 0.531E+02 0.000E+00 0.217E+01 0.216E+01 0.950E+02 0.220E+01 0.220E+02 0.635E-01 0.462E+02 0.244E+01 0.456E+01 0.558E+00 0.599E-03 0.148E-02 0.445E+00 0.241E+02 0.545E-01 0.294E-05 .41263E-01 0.301E+03 0.203E+01 0.000E+00 0.000E+00 0.000E+00
BIGSUB   5        0   11.24789E+00 0.531E+02 0.000E+00 0.218E+01 0.216E+01 0.963E+02 0.187E+01 0.220E+02 0.546E-01 0.464E+02 0.291E+01 0.478E+01 0.584E+00 0.742E-03 0.144E-02 0.468E+00 0.244E+02 0.555E-01 0.201E-04 .42924E-01 0.341E+03 0.205E+01 0.000E+00 0.000E+00 0.000E+00
BIGSUB   6        0   11.21516E+00 0.531E+02 0.000E+00 0.217E+01 0.215E+01 0.103E+03 0.210E+01 0.208E+02 0.798E-01 0.464E+02 0.257E+01 0.451E+01 0.552E+00 0.119E-02 0.173E-02 0.439E+00 0.255E+02 0.592E-01 0.223E-04 .36873E-01 0.298E+03 0.216E+01 0.000E+00 0.000E+00 0.000E+00
BIGSUB   7        0   11.52122E-01 0.531E+02 0.000E+00 0.217E+01 0.216E+01 0.950E+02 0.137E+01 0.220E+02 0.289E-01 0.468E+02 0.285E+01 0.480E+01 0.586E+00 0.837E-03 0.148E-02 0.469E+00 0.248E+02 0.621E-01 0.977E-05 .42064E-01 0.333E+03 0.208E+01 0.000E+00 0.000E+00 0.000E+00
BIGSUB   8        0   11.51507E-01 0.531E+02 0.000E+00 0.217E+01 0.216E+01 0.950E+02 0.278E+01 0.219E+02 0.242E+00 0.457E+02 0.238E+01 0.440E+01 0.538E+00 0.776E-03 0.167E-02 0.429E+00 0.235E+02 0.543E-01 0.817E-04 .39275E-01 0.289E+03 0.200E+01 0.000E+00 0.000E+00 0.000E+00
BIGSUB   9        0   11.22296E+00 0.531E+02 0.000E+00 0.218E+01 0.216E+01 0.981E+02 0.249E+01 0.220E+02 0.138E+00 0.459E+02 0.267E+01 0.462E+01 0.565E+00 0.667E-03 0.147E-02 0.452E+00 0.238E+02 0.538E-01 0.506E-04 .42752E-01 0.323E+03 0.200E+01 0.000E+00 0.000E+00 0.000E+00
BIGSUB  10        0   11.69770E-01 0.531E+02 0.000E+00 0.218E+01 0.214E+01 0.124E+03 0.745E+01 0.231E+02 0.110E+01 0.419E+02 0.226E+01 0.371E+01 0.454E+00 0.112E-02 0.214E-02 0.365E+00 0.176E+02 0.413E-01 0.323E-03 .41921E-01 0.296E+03 0.166E+01 0.000E+00 0.000E+00 0.000E+00
BIGSUB  11        0   11.12671E+00 0.531E+02 0.000E+00 0.218E+01 0.216E+01 0.122E+03 0.607E+01 0.206E+02 0.852E+00 0.430E+02 0.303E+01 0.456E+01 0.558E+00 0.705E-03 0.137E-02 0.448E+00 0.215E+02 0.512E-01 0.300E-03 .47887E-01 0.381E+03 0.188E+01 0.000E+00 0.000E+00 0.000E+00
BIGSUB   1        0   12.35860E+00 0.389E+02 0.000E+00 0.187E+01 0.186E+01 0.106E+03 0.334E+01 0.106E+02 0.389E+00 0.343E+02 0.233E-05 0.193E+01 0.236E+00 0.337E-03 0.712E-03 0.187E+00 0.233E+02 0.511E-01 0.776E-04 .80677E-02 0.658E-03 0.287E+01 0.000E+00 0.000E+00 0.000E+00
BIGSUB   2        0   12.32997E+00 0.389E+02 0.000E+00 0.187E+01 0.183E+01 0.118E+03 0.329E+01 0.114E+02 0.433E+00 0.343E+02 0.556E-05 0.188E+01 0.231E+00 0.108E-02 0.124E-02 0.182E+00 0.224E+02 0.662E-01 0.890E-04 .11329E-01 0.350E-02 0.286E+01 0.000E+00 0.000E+00 0.000E+00
BIGSUB   3        0   12.49752E+00 0.389E+02 0.000E+00 0.187E+01 0.183E+01 0.118E+03 0.739E+01 0.124E+02 0.124E+01 0.311E+02 0.334E-09 0.178E+01 0.220E+00 0.130E-02 0.142E-02 0.174E+00 0.174E+02 0.499E-01 0.417E-03 .15648E-01 0.107E-06 0.259E+01 0.000E+00 0.000E+00 0.000E+00
BIGSUB   4        0   12.34608E+00 0.389E+02 0.000E+00 0.187E+01 0.186E+01 0.953E+02 0.211E+01 0.123E+02 0.772E-01 0.353E+02 0.289E-10 0.199E+01 0.243E+00 0.309E-03 0.803E-03 0.194E+00 0.230E+02 0.510E-01 0.403E-05 .96040E-02 0.278E-08 0.295E+01 0.000E+00 0.000E+00 0.000E+00
BIGSUB   5        0   12.24789E+00 0.389E+02 0.000E+00 0.188E+01 0.186E+01 0.966E+02 0.181E+01 0.123E+02 0.557E-01 0.356E+02 0.234E-09 0.206E+01 0.252E+00 0.392E-03 0.782E-03 0.202E+00 0.232E+02 0.530E-01 0.213E-04 .99294E-02 0.278E-07 0.297E+01 0.000E+00 0.000E+00 0.000E+00
BIGSUB   6        0   12.21516E+00 0.389E+02 0.000E+00 0.188E+01 0.185E+01 0.103E+03 0.200E+01 0.115E+02 0.816E-01 0.354E+02 0.640E-06 0.189E+01 0.231E+00 0.670E-03 0.921E-03 0.184E+00 0.238E+02 0.540E-01 0.237E-04 .84391E-02 0.179E-03 0.295E+01 0.000E+00 0.000E+00 0.000E+00
BIGSUB   7        0   12.52122E-01 0.389E+02 0.000E+00 0.188E+01 0.186E+01 0.953E+02 0.135E+01 0.123E+02 0.294E-01 0.360E+02 0.116E-04 0.207E+01 0.253E+00 0.448E-03 0.806E-03 0.203E+00 0.237E+02 0.619E-01 0.103E-04 .96099E-02 0.328E-02 0.300E+01 0.000E+00 0.000E+00 0.000E+00
BIGSUB   8        0   12.51507E-01 0.389E+02 0.000E+00 0.188E+01 0.186E+01 0.953E+02 0.260E+01 0.124E+02 0.247E+00 0.351E+02 0.129E-03 0.192E+01 0.234E+00 0.417E-03 0.935E-03 0.187E+00 0.224E+02 0.520E-01 0.863E-04 .91860E-02 0.370E-01 0.291E+01 0.000E+00 0.000E+00 0.000E+00
BIGSUB   9        0   12.22296E+00 0.389E+02 0.000E+00 0.188E+01 0.186E+01 0.984E+02 0.236E+01 0.123E+02 0.141E+00 0.351E+02 0.420E-05 0.200E+01 0.245E+00 0.348E-03 0.795E-03 0.196E+00 0.227E+02 0.509E-01 0.536E-04 .10080E-01 0.928E-03 0.293E+01 0.000E+00 0.000E+00 0.000E+00
BIGSUB  10        0   12.69770E-01 0.389E+02 0.000E+00 0.188E+01 0.184E+01 0.125E+03 0.688E+01 0.131E+02 0.112E+01 0.312E+02 0.140E-08 0.161E+01 0.197E+00 0.664E-03 0.120E-02 0.158E+00 0.169E+02 0.398E-01 0.345E-03 .10846E-01 0.274E-06 0.260E+01 0.000E+00 0.000E+00 0.000E+00
BIGSUB  11        0   12.12671E+00 0.389E+02 0.000E+00 0.188E+01 0.186E+01 0.122E+03 0.553E+01 0.114E+02 0.869E+00 0.323E+02 0.847E-09 0.190E+01 0.232E+00 0.365E-03 0.726E-03 0.186E+00 0.201E+02 0.492E-01 0.318E-03 .12148E-01 0.153E-06 0.270E+01 0.000E+00 0.000E+00 0.000E+00
BIGSUB   1        0   13.35860E+00 0.150E+02 0.000E+00 0.190E+01 0.189E+01 0.106E+03 0.144E+01 0.633E+00 0.398E+00 0.155E+02 0.237E-01 0.469E-01 0.573E-02 0.389E-04 0.400E-04 0.459E-02 0.144E+02 0.311E-01 0.828E-04 .45984E-05 0.382E+00 0.124E+01 0.000E+00 0.000E+00 0.000E+00
BIGSUB   2        0   13.32997E+00 0.150E+02 0.000E+00 0.190E+01 0.186E+01 0.118E+03 0.155E+01 0.876E+00 0.444E+00 0.145E+02 0.309E-01 0.588E-01 0.726E-02 0.194E-03 0.948E-04 0.574E-02 0.132E+02 0.378E-01 0.955E-04 .59925E-04 0.216E+01 0.114E+01 0.000E+00 0.000E+00 0.000E+00
BIGSUB   3        0   13.49752E+00 0.150E+02 0.000E+00 0.190E+01 0.186E+01 0.117E+03 0.348E+01 0.120E+01 0.126E+01 0.136E+02 0.368E-01 0.705E-01 0.876E-02 0.301E-03 0.123E-03 0.694E-02 0.111E+02 0.309E-01 0.450E-03 .30822E-03 0.515E+01 0.103E+01 0.000E+00 0.000E+00 0.000E+00
BIGSUB   4        0   13.34608E+00 0.150E+02 0.000E+00 0.190E+01 0.189E+01 0.953E+02 0.104E+01 0.789E+00 0.911E-01 0.162E+02 0.233E-01 0.555E-01 0.680E-02 0.361E-04 0.503E-04 0.542E-02 0.153E+02 0.327E-01 0.530E-05 .52771E-05 0.408E+00 0.128E+01 0.000E+00 0.000E+00 0.000E+00
BIGSUB   5        0   13.24789E+00 0.150E+02 0.000E+00 0.190E+01 0.189E+01 0.965E+02 0.897E+00 0.793E+00 0.568E-01 0.164E+02 0.278E-01 0.577E-01 0.705E-02 0.470E-04 0.496E-04 0.565E-02 0.155E+02 0.342E-01 0.225E-04 .58819E-05 0.464E+00 0.130E+01 0.000E+00 0.000E+00 0.000E+00
BIGSUB   6        0   13.21516E+00 0.150E+02 0.000E+00 0.190E+01 0.188E+01 0.103E+03 0.979E+00 0.725E+00 0.834E-01 0.158E+02 0.222E-01 0.484E-01 0.591E-02 0.925E-04 0.569E-04 0.473E-02 0.150E+02 0.329E-01 0.252E-04 .51128E-05 0.377E+00 0.126E+01 0.000E+00 0.000E+00 0.000E+00
BIGSUB   7        0   13.52122E-01 0.150E+02 0.000E+00 0.190E+01 0.189E+01 0.953E+02 0.666E+00 0.809E+00 0.300E-01 0.167E+02 0.271E-01 0.579E-01 0.708E-02 0.541E-04 0.551E-04 0.566E-02 0.158E+02 0.403E-01 0.108E-04 .67973E-05 0.444E+00 0.132E+01 0.000E+00 0.000E+00 0.000E+00
BIGSUB   8        0   13.51507E-01 0.150E+02 0.000E+00 0.190E+01 0.189E+01 0.953E+02 0.130E+01 0.971E+00 0.251E+00 0.162E+02 0.226E-01 0.557E-01 0.680E-02 0.532E-04 0.101E-03 0.542E-02 0.150E+02 0.335E-01 0.906E-04 .28047E-04 0.388E+00 0.129E+01 0.000E+00 0.000E+00 0.000E+00
BIGSUB   9        0   13.22296E+00 0.150E+02 0.000E+00 0.190E+01 0.189E+01 0.984E+02 0.117E+01 0.799E+00 0.144E+00 0.161E+02 0.255E-01 0.561E-01 0.687E-02 0.410E-04 0.515E-04 0.549E-02 0.151E+02 0.328E-01 0.565E-04 .67890E-05 0.446E+00 0.127E+01 0.000E+00 0.000E+00 0.000E+00
BIGSUB  10        0   13.69770E-01 0.150E+02 0.000E+00 0.190E+01 0.187E+01 0.125E+03 0.362E+01 0.103E+01 0.114E+01 0.137E+02 0.218E-01 0.463E-01 0.566E-02 0.132E-03 0.110E-03 0.456E-02 0.115E+02 0.261E-01 0.367E-03 .11236E-04 0.475E+00 0.108E+01 0.000E+00 0.000E+00 0.000E+00
BIGSUB  11        0   13.12671E+00 0.150E+02 0.000E+00 0.190E+01 0.189E+01 0.122E+03 0.275E+01 0.723E+00 0.888E+00 0.142E+02 0.278E-01 0.495E-01 0.606E-02 0.455E-04 0.454E-04 0.491E-02 0.125E+02 0.306E-01 0.336E-03 .12966E-04 0.618E+00 0.112E+01 0.000E+00 0.000E+00 0.000E+00
BIGSUB   1        0   14.35860E+00 0.234E+02 0.000E+00 0.210E+01 0.209E+01 0.106E+03 0.225E+01 0.300E+01 0.408E+00 0.194E+02 0.163E+00 0.332E+00 0.406E-01 0.770E-04 0.185E-03 0.324E-01 0.159E+02 0.329E-01 0.883E-04 .43037E-03 0.882E+01 0.137E+01 0.000E+00 0.000E+00 0.000E+00
BIGSUB   2        0   14.32997E+00 0.234E+02 0.000E+00 0.210E+01 0.206E+01 0.118E+03 0.232E+01 0.346E+01 0.456E+00 0.195E+02 0.170E+00 0.347E+00 0.426E-01 0.293E-03 0.348E-03 0.338E-01 0.155E+02 0.432E-01 0.103E-03 .89647E-03 0.164E+02 0.135E+01 0.000E+00 0.000E+00 0.000E+00
BIGSUB   3        0   14.49752E+00 0.234E+02 0.000E+00 0.210E+01 0.205E+01 0.117E+03 0.518E+01 0.404E+01 0.129E+01 0.174E+02 0.165E+00 0.352E+00 0.436E-01 0.392E-03 0.417E-03 0.346E-01 0.120E+02 0.328E-01 0.486E-03 .19997E-02 0.233E+02 0.113E+01 0.000E+00 0.000E+00 0.000E+00
BIGSUB   4        0   14.34608E+00 0.234E+02 0.000E+00 0.210E+01 0.209E+01 0.951E+02 0.153E+01 0.369E+01 0.106E+00 0.198E+02 0.158E+00 0.380E+00 0.466E-01 0.697E-04 0.233E-03 0.371E-01 0.159E+02 0.331E-01 0.686E-05 .53145E-03 0.935E+01 0.134E+01 0.000E+00 0.000E+00 0.000E+00
BIGSUB   5        0   14.24789E+00 0.234E+02 0.000E+00 0.210E+01 0.209E+01 0.963E+02 0.131E+01 0.370E+01 0.581E-01 0.199E+02 0.188E+00 0.394E+00 0.482E-01 0.913E-04 0.227E-03 0.386E-01 0.162E+02 0.347E-01 0.238E-04 .54777E-03 0.106E+02 0.136E+01 0.000E+00 0.000E+00 0.000E+00
BIGSUB   6        0   14.21516E+00 0.234E+02 0.000E+00 0.210E+01 0.208E+01 0.103E+03 0.144E+01 0.337E+01 0.869E-01 0.199E+02 0.153E+00 0.338E+00 0.414E-01 0.185E-03 0.258E-03 0.331E-01 0.164E+02 0.347E-01 0.268E-04 .46204E-03 0.865E+01 0.139E+01 0.000E+00 0.000E+00 0.000E+00
BIGSUB   7        0   14.52122E-01 0.234E+02 0.000E+00 0.210E+01 0.209E+01 0.951E+02 0.981E+00 0.369E+01 0.306E-01 0.202E+02 0.184E+00 0.396E+00 0.483E-01 0.106E-03 0.233E-03 0.387E-01 0.165E+02 0.412E-01 0.114E-04 .52499E-03 0.102E+02 0.138E+01 0.000E+00 0.000E+00 0.000E+00
BIGSUB   8        0   14.51507E-01 0.234E+02 0.000E+00 0.210E+01 0.209E+01 0.951E+02 0.189E+01 0.372E+01 0.257E+00 0.196E+02 0.153E+00 0.367E+00 0.448E-01 0.100E-03 0.271E-03 0.358E-01 0.156E+02 0.341E-01 0.950E-04 .50851E-03 0.891E+01 0.133E+01 0.000E+00 0.000E+00 0.000E+00
BIGSUB   9        0   14.22296E+00 0.234E+02 0.000E+00 0.210E+01 0.209E+01 0.982E+02 0.172E+01 0.370E+01 0.147E+00 0.196E+02 0.172E+00 0.383E+00 0.469E-01 0.792E-04 0.231E-03 0.375E-01 0.158E+02 0.332E-01 0.597E-04 .56072E-03 0.101E+02 0.133E+01 0.000E+00 0.000E+00 0.000E+00
BIGSUB  10        0   14.69770E-01 0.234E+02 0.000E+00 0.210E+01 0.206E+01 0.124E+03 0.513E+01 0.415E+01 0.117E+01 0.173E+02 0.146E+00 0.307E+00 0.376E-01 0.194E-03 0.387E-03 0.303E-01 0.119E+02 0.264E-01 0.391E-03 .62714E-03 0.976E+01 0.116E+01 0.000E+00 0.000E+00 0.000E+00
BIGSUB  11        0   14.12671E+00 0.234E+02 0.000E+00 0.210E+01 0.209E+01 0.122E+03 0.400E+01 0.332E+01 0.909E+00 0.182E+02 0.187E+00 0.337E+00 0.412E-01 0.847E-04 0.200E-03 0.333E-01 0.139E+02 0.325E-01 0.355E-03 .69803E-03 0.122E+02 0.124E+01 0.000E+00 0.000E+00 0.000E+00
BIGSUB   1        0   15.35860E+00 0.175E+02 0.000E+00 0.244E+01 0.243E+01 0.106E+03 0.167E+01 0.116E+01 0.417E+00 0.151E+02 0.129E-09 0.207E+00 0.253E-01 0.349E-04 0.691E-04 0.203E-01 0.135E+02 0.270E-01 0.936E-04 .70917E-04 0.654E-09 0.126E+01 0.000E+00 0.000E+00 0.000E+00
BIGSUB   2        0   15.32997E+00 0.175E+02 0.000E+00 0.245E+01 0.239E+01 0.118E+03 0.177E+01 0.146E+01 0.468E+00 0.148E+02 0.144E-01 0.237E+00 0.292E-01 0.157E-03 0.144E-03 0.232E-01 0.129E+02 0.345E-01 0.110E-03 .32102E-03 0.218E+01 0.119E+01 0.000E+00 0.000E+00 0.000E+00
BIGSUB   3        0   15.49752E+00 0.175E+02 0.000E+00 0.245E+01 0.239E+01 0.117E+03 0.396E+01 0.186E+01 0.132E+01 0.136E+02 0.316E-01 0.259E+00 0.322E-01 0.227E-03 0.183E-03 0.256E-01 0.103E+02 0.272E-01 0.521E-03 .11382E-02 0.653E+01 0.104E+01 0.000E+00 0.000E+00 0.000E+00
BIGSUB   4        0   15.34608E+00 0.175E+02 0.000E+00 0.244E+01 0.243E+01 0.948E+02 0.118E+01 0.146E+01 0.121E+00 0.155E+02 0.289E-10 0.247E+00 0.302E-01 0.326E-04 0.904E-04 0.241E-01 0.139E+02 0.276E-01 0.865E-05 .87727E-04 0.735E-09 0.129E+01 0.000E+00 0.000E+00 0.000E+00
BIGSUB   5        0   15.24789E+00 0.175E+02 0.000E+00 0.244E+01 0.243E+01 0.960E+02 0.101E+01 0.146E+01 0.594E-01 0.156E+02 0.951E-06 0.255E+00 0.312E-01 0.423E-04 0.884E-04 0.250E-01 0.140E+02 0.290E-01 0.251E-04 .90724E-04 0.727E-04 0.130E+01 0.000E+00 0.000E+00 0.000E+00
BIGSUB   6        0   15.21516E+00 0.175E+02 0.000E+00 0.244E+01 0.241E+01 0.103E+03 0.111E+01 0.132E+01 0.904E-01 0.154E+02 0.306E-06 0.214E+00 0.262E-01 0.925E-04 0.997E-04 0.210E-01 0.140E+02 0.284E-01 0.284E-04 .76767E-04 0.236E-04 0.128E+01 0.000E+00 0.000E+00 0.000E+00
BIGSUB   7        0   15.52122E-01 0.175E+02 0.000E+00 0.244E+01 0.243E+01 0.948E+02 0.753E+00 0.146E+01 0.313E-01 0.158E+02 0.337E-09 0.257E+00 0.314E-01 0.484E-04 0.913E-04 0.251E-01 0.143E+02 0.344E-01 0.119E-04 .86642E-04 0.456E-08 0.132E+01 0.000E+00 0.000E+00 0.000E+00
BIGSUB   8        0   15.51507E-01 0.175E+02 0.000E+00 0.244E+01 0.243E+01 0.948E+02 0.146E+01 0.150E+01 0.262E+00 0.153E+02 0.227E-04 0.238E+00 0.291E-01 0.470E-04 0.112E-03 0.232E-01 0.136E+02 0.285E-01 0.991E-04 .86214E-04 0.272E-02 0.127E+01 0.000E+00 0.000E+00 0.000E+00
BIGSUB   9        0   15.22296E+00 0.175E+02 0.000E+00 0.244E+01 0.243E+01 0.978E+02 0.133E+01 0.146E+01 0.151E+00 0.153E+02 0.128E-05 0.248E+00 0.304E-01 0.367E-04 0.900E-04 0.243E-01 0.137E+02 0.278E-01 0.628E-04 .93419E-04 0.984E-04 0.128E+01 0.000E+00 0.000E+00 0.000E+00
BIGSUB  10        0   15.69770E-01 0.175E+02 0.000E+00 0.244E+01 0.240E+01 0.124E+03 0.406E+01 0.176E+01 0.119E+01 0.134E+02 0.677E-04 0.200E+00 0.245E-01 0.118E-03 0.173E-03 0.197E-01 0.104E+02 0.222E-01 0.415E-03 .11085E-03 0.795E-02 0.111E+01 0.000E+00 0.000E+00 0.000E+00
BIGSUB  11        0   15.12671E+00 0.175E+02 0.000E+00 0.244E+01 0.243E+01 0.122E+03 0.311E+01 0.131E+01 0.930E+00 0.141E+02 0.240E-03 0.214E+00 0.262E-01 0.408E-04 0.777E-04 0.212E-01 0.118E+02 0.268E-01 0.374E-03 .12642E-03 0.470E-01 0.117E+01 0.000E+00 0.000E+00 0.000E+00
BIGSUB   1        0   16.35860E+00 0.840E+01 0.000E+00 0.275E+01 0.273E+01 0.105E+03 0.609E+00 0.620E-03 0.426E+00 0.820E+01 0.129E-09 0.103E-05 0.127E-06 0.141E-07 0.146E-06 0.922E-07 0.776E+01 0.143E-01 0.982E-04 .16908E-09 0.000E+00 0.679E+00 0.000E+00 0.000E+00 0.000E+00
BIGSUB   2        0   16.32997E+00 0.840E+01 0.000E+00 0.275E+01 0.269E+01 0.117E+03 0.701E+00 0.506E-01 0.480E+00 0.754E+01 0.483E-09 0.389E-02 0.486E-03 0.203E-04 0.722E-05 0.381E-03 0.699E+01 0.172E-01 0.116E-03 .30123E-05 0.656E-08 0.624E+00 0.000E+00 0.000E+00 0.000E+00
BIGSUB   3        0   16.49752E+00 0.840E+01 0.000E+00 0.275E+01 0.268E+01 0.117E+03 0.165E+01 0.145E+00 0.135E+01 0.759E+01 0.334E-09 0.106E-01 0.133E-02 0.478E-04 0.148E-04 0.104E-02 0.604E+01 0.147E-01 0.553E-03 .29286E-04 0.349E-07 0.629E+00 0.000E+00 0.000E+00 0.000E+00
BIGSUB   4        0   16.34608E+00 0.840E+01 0.000E+00 0.275E+01 0.273E+01 0.945E+02 0.422E+00 0.100E-05 0.136E+00 0.855E+01 0.289E-10 0.298E-07 0.373E-08 0.100E-08 0.100E-08 0.286E-08 0.841E+01 0.154E-01 0.105E-04 .16848E-22 0.000E+00 0.708E+00 0.000E+00 0.000E+00 0.000E+00
BIGSUB   5        0   16.24789E+00 0.840E+01 0.000E+00 0.276E+01 0.274E+01 0.957E+02 0.363E+00 0.557E-03 0.606E-01 0.858E+01 0.234E-09 0.139E-04 0.171E-05 0.835E-07 0.913E-07 0.139E-05 0.851E+01 0.159E-01 0.262E-04 .77345E-10 0.000E+00 0.711E+00 0.000E+00 0.000E+00 0.000E+00
BIGSUB   6        0   16.21516E+00 0.840E+01 0.000E+00 0.275E+01 0.272E+01 0.102E+03 0.407E+00 0.283E-02 0.937E-01 0.821E+01 0.544E-09 0.109E-04 0.133E-05 0.124E-05 0.621E-06 0.106E-05 0.810E+01 0.151E-01 0.298E-04 .22534E-09 0.000E+00 0.680E+00 0.000E+00 0.000E+00 0.000E+00
BIGSUB   7        0   16.52122E-01 0.840E+01 0.000E+00 0.276E+01 0.274E+01 0.945E+02 0.258E+00 0.296E-02 0.319E-01 0.871E+01 0.337E-09 0.311E-05 0.382E-06 0.637E-07 0.697E-06 0.289E-06 0.867E+01 0.187E-01 0.123E-04 .84438E-09 0.000E+00 0.722E+00 0.000E+00 0.000E+00 0.000E+00
BIGSUB   8        0   16.51507E-01 0.840E+01 0.000E+00 0.276E+01 0.274E+01 0.945E+02 0.560E+00 0.316E-01 0.267E+00 0.853E+01 0.502E-09 0.319E-03 0.391E-04 0.642E-06 0.745E-05 0.295E-04 0.821E+01 0.156E-01 0.103E-03 .22790E-06 0.000E+00 0.706E+00 0.000E+00 0.000E+00 0.000E+00
BIGSUB   9        0   16.22296E+00 0.840E+01 0.000E+00 0.276E+01 0.274E+01 0.975E+02 0.495E+00 0.210E-02 0.154E+00 0.848E+01 0.128E-08 0.307E-04 0.376E-05 0.438E-07 0.447E-06 0.306E-05 0.831E+01 0.153E-01 0.656E-04 .13853E-07 0.000E+00 0.703E+00 0.000E+00 0.000E+00 0.000E+00
BIGSUB  10        0   16.69770E-01 0.840E+01 0.000E+00 0.276E+01 0.271E+01 0.124E+03 0.177E+01 0.344E-01 0.122E+01 0.780E+01 0.140E-08 0.142E-03 0.174E-04 0.107E-04 0.647E-05 0.143E-04 0.650E+01 0.125E-01 0.437E-03 .35683E-08 0.000E+00 0.646E+00 0.000E+00 0.000E+00 0.000E+00
BIGSUB  11        0   16.12671E+00 0.840E+01 0.000E+00 0.276E+01 0.274E+01 0.122E+03 0.128E+01 0.349E-02 0.950E+00 0.787E+01 0.847E-09 0.253E-03 0.321E-04 0.683E-06 0.504E-06 0.262E-04 0.687E+01 0.143E-01 0.391E-03 .98478E-08 0.235E-08 0.651E+00 0.000E+00 0.000E+00 0.000E+00
BIGSUB   1        0   17.35860E+00 0.323E+02 0.000E+00 0.294E+01 0.288E+01 0.105E+03 0.277E+01 0.688E+01 0.437E+00 0.240E+02 0.419E+00 0.773E+00 0.944E-01 0.985E-04 0.422E-03 0.752E-01 0.166E+02 0.303E-01 0.104E-03 .31168E-02 0.411E+02 0.143E+01 0.000E+00 0.000E+00 0.000E+00
BIGSUB   2        0   17.32997E+00 0.323E+02 0.000E+00 0.294E+01 0.285E+01 0.117E+03 0.278E+01 0.755E+01 0.493E+00 0.250E+02 0.428E+00 0.759E+00 0.933E-01 0.385E-03 0.738E-03 0.738E-01 0.169E+02 0.415E-01 0.124E-03 .41189E-02 0.613E+02 0.149E+01 0.000E+00 0.000E+00 0.000E+00
BIGSUB   3        0   17.49752E+00 0.323E+02 0.000E+00 0.294E+01 0.284E+01 0.117E+03 0.630E+01 0.838E+01 0.138E+01 0.222E+02 0.404E+00 0.731E+00 0.904E-01 0.467E-03 0.859E-03 0.717E-01 0.124E+02 0.301E-01 0.589E-03 .60829E-02 0.755E+02 0.119E+01 0.000E+00 0.000E+00 0.000E+00
BIGSUB   4        0   17.34608E+00 0.323E+02 0.000E+00 0.294E+01 0.286E+01 0.943E+02 0.174E+01 0.815E+01 0.151E+00 0.241E+02 0.396E+00 0.828E+00 0.101E+00 0.908E-04 0.496E-03 0.808E-01 0.158E+02 0.293E-01 0.127E-04 .37794E-02 0.426E+02 0.134E+01 0.000E+00 0.000E+00 0.000E+00
BIGSUB   5        0   17.24789E+00 0.323E+02 0.000E+00 0.294E+01 0.286E+01 0.956E+02 0.149E+01 0.815E+01 0.620E-01 0.242E+02 0.473E+00 0.857E+00 0.105E+00 0.113E-03 0.482E-03 0.839E-01 0.160E+02 0.304E-01 0.274E-04 .38889E-02 0.483E+02 0.135E+01 0.000E+00 0.000E+00 0.000E+00
BIGSUB   6        0   17.21516E+00 0.323E+02 0.000E+00 0.294E+01 0.286E+01 0.102E+03 0.166E+01 0.756E+01 0.974E-01 0.246E+02 0.398E+00 0.768E+00 0.939E-01 0.246E-03 0.565E-03 0.749E-01 0.169E+02 0.318E-01 0.314E-04 .32849E-02 0.400E+02 0.145E+01 0.000E+00 0.000E+00 0.000E+00
BIGSUB   7        0   17.52122E-01 0.323E+02 0.000E+00 0.294E+01 0.286E+01 0.943E+02 0.109E+01 0.813E+01 0.325E-01 0.245E+02 0.462E+00 0.860E+00 0.105E+00 0.127E-03 0.493E-03 0.841E-01 0.163E+02 0.357E-01 0.127E-04 .37834E-02 0.468E+02 0.137E+01 0.000E+00 0.000E+00 0.000E+00
BIGSUB   8        0   17.51507E-01 0.323E+02 0.000E+00 0.294E+01 0.286E+01 0.943E+02 0.219E+01 0.806E+01 0.273E+00 0.238E+02 0.386E+00 0.796E+00 0.972E-01 0.123E-03 0.546E-03 0.777E-01 0.154E+02 0.298E-01 0.106E-03 .35750E-02 0.408E+02 0.133E+01 0.000E+00 0.000E+00 0.000E+00
BIGSUB   9        0   17.22296E+00 0.323E+02 0.000E+00 0.294E+01 0.286E+01 0.974E+02 0.197E+01 0.815E+01 0.158E+00 0.239E+02 0.433E+00 0.833E+00 0.102E+00 0.999E-04 0.489E-03 0.816E-01 0.156E+02 0.293E-01 0.687E-04 .39026E-02 0.458E+02 0.132E+01 0.000E+00 0.000E+00 0.000E+00
BIGSUB  10        0   17.69770E-01 0.323E+02 0.000E+00 0.294E+01 0.285E+01 0.124E+03 0.598E+01 0.883E+01 0.125E+01 0.219E+02 0.367E+00 0.668E+00 0.816E-01 0.233E-03 0.771E-03 0.657E-01 0.118E+02 0.230E-01 0.462E-03 .38015E-02 0.419E+02 0.118E+01 0.000E+00 0.000E+00 0.000E+00
BIGSUB  11        0   17.12671E+00 0.323E+02 0.000E+00 0.294E+01 0.288E+01 0.121E+03 0.475E+01 0.745E+01 0.973E+00 0.229E+02 0.479E+00 0.765E+00 0.935E-01 0.109E-03 0.436E-03 0.753E-01 0.145E+02 0.292E-01 0.410E-03 .41668E-02 0.521E+02 0.130E+01 0.000E+00 0.000E+00 0.000E+00
BIGSUB   1        0   18.35860E+00 0.250E+01 0.000E+00 0.253E+01 0.248E+01 0.105E+03 0.489E-04 0.287E-02 0.445E+00 0.544E+01 0.129E-09 0.568E-04 0.695E-05 0.427E-07 0.748E-06 0.487E-05 0.497E+01 0.887E-02 0.108E-03 .14629E-07 0.000E+00 0.449E+00 0.000E+00 0.000E+00 0.000E+00
BIGSUB   2        0   18.32997E+00 0.250E+01 0.000E+00 0.253E+01 0.246E+01 0.117E+03 0.332E-03 0.536E-02 0.505E+00 0.422E+01 0.483E-09 0.172E-03 0.213E-04 0.666E-06 0.196E-05 0.152E-04 0.369E+01 0.819E-02 0.130E-03 .19962E-06 0.000E+00 0.348E+00 0.000E+00 0.000E+00 0.000E+00
BIGSUB   3        0   18.49752E+00 0.250E+01 0.000E+00 0.253E+01 0.245E+01 0.116E+03 0.000E+00 0.130E-01 0.140E+01 0.533E+01 0.334E-09 0.640E-03 0.784E-04 0.568E-06 0.125E-05 0.602E-04 0.386E+01 0.846E-02 0.618E-03 .82115E-06 0.000E+00 0.440E+00 0.000E+00 0.000E+00 0.000E+00
BIGSUB   4        0   18.34608E+00 0.250E+01 0.000E+00 0.253E+01 0.249E+01 0.937E+02 0.000E+00 0.100E-05 0.166E+00 0.601E+01 0.289E-10 0.119E-06 0.149E-07 0.100E-08 0.100E-08 0.845E-08 0.583E+01 0.101E-01 0.147E-04 .13315E-21 0.000E+00 0.496E+00 0.000E+00 0.000E+00 0.000E+00
BIGSUB   5        0   18.24789E+00 0.250E+01 0.000E+00 0.254E+01 0.248E+01 0.949E+02 0.188E-03 0.139E-02 0.632E-01 0.601E+01 0.234E-09 0.458E-04 0.561E-05 0.174E-07 0.170E-06 0.456E-05 0.594E+01 0.105E-01 0.284E-04 .10569E-07 0.000E+00 0.496E+00 0.000E+00 0.000E+00 0.000E+00
BIGSUB   6        0   18.21516E+00 0.250E+01 0.000E+00 0.254E+01 0.247E+01 0.102E+03 0.742E-04 0.318E-02 0.101E+00 0.535E+01 0.544E-09 0.396E-04 0.485E-05 0.498E-07 0.676E-06 0.382E-05 0.523E+01 0.930E-02 0.327E-04 .17909E-07 0.000E+00 0.441E+00 0.000E+00 0.000E+00 0.000E+00
BIGSUB   7        0   18.52122E-01 0.250E+01 0.000E+00 0.254E+01 0.247E+01 0.937E+02 0.229E-03 0.909E-02 0.331E-01 0.612E+01 0.337E-09 0.386E-04 0.473E-05 0.116E-06 0.216E-05 0.356E-05 0.607E+01 0.123E-01 0.131E-04 .67157E-07 0.000E+00 0.505E+00 0.000E+00 0.000E+00 0.000E+00
BIGSUB   8        0   18.51507E-01 0.250E+01 0.000E+00 0.254E+01 0.248E+01 0.937E+02 0.138E-02 0.709E-01 0.278E+00 0.610E+01 0.502E-09 0.398E-03 0.487E-04 0.912E-06 0.167E-04 0.367E-04 0.573E+01 0.103E-01 0.109E-03 .74185E-06 0.000E+00 0.503E+00 0.000E+00 0.000E+00 0.000E+00
BIGSUB   9        0   18.22296E+00 0.250E+01 0.000E+00 0.254E+01 0.249E+01 0.968E+02 0.326E-03 0.420E-02 0.161E+00 0.597E+01 0.463E-09 0.826E-04 0.101E-04 0.530E-07 0.708E-06 0.828E-05 0.580E+01 0.101E-01 0.711E-04 .11344E-07 0.000E+00 0.493E+00 0.000E+00 0.000E+00 0.000E+00
BIGSUB  10        0   18.69770E-01 0.250E+01 0.000E+00 0.254E+01 0.246E+01 0.123E+03 0.135E-02 0.119E-01 0.127E+01 0.596E+01 0.140E-08 0.403E-03 0.494E-04 0.223E-06 0.146E-05 0.407E-04 0.463E+01 0.835E-02 0.481E-03 .77075E-07 0.000E+00 0.492E+00 0.000E+00 0.000E+00 0.000E+00
BIGSUB  11        0   18.12671E+00 0.250E+01 0.000E+00 0.254E+01 0.249E+01 0.121E+03 0.856E-03 0.842E-02 0.993E+00 0.550E+01 0.847E-09 0.381E-03 0.466E-04 0.807E-07 0.812E-06 0.386E-04 0.446E+01 0.897E-02 0.425E-03 .80563E-07 0.000E+00 0.454E+00 0.000E+00 0.000E+00 0.000E+00
BIGSUB   1        0   19.35860E+00 0.107E+02 0.000E+00 0.222E+01 0.220E+01 0.106E+03 0.631E+00 0.543E-01 0.453E+00 0.683E+01 0.411E-02 0.664E-02 0.812E-03 0.304E-05 0.317E-05 0.651E-03 0.630E+01 0.832E-02 0.111E-03 .27549E-07 0.118E-01 0.564E+00 0.000E+00 0.000E+00 0.000E+00
BIGSUB   2        0   19.32997E+00 0.107E+02 0.000E+00 0.222E+01 0.217E+01 0.118E+03 0.772E+00 0.176E+00 0.516E+00 0.694E+01 0.130E-01 0.187E-01 0.233E-02 0.524E-04 0.201E-04 0.184E-02 0.623E+01 0.116E-01 0.135E-03 .18781E-04 0.874E+00 0.564E+00 0.000E+00 0.000E+00 0.000E+00
BIGSUB   3        0   19.49752E+00 0.107E+02 0.000E+00 0.221E+01 0.216E+01 0.117E+03 0.198E+01 0.343E+00 0.143E+01 0.670E+01 0.233E-01 0.316E-01 0.396E-02 0.884E-04 0.336E-04 0.313E-02 0.487E+01 0.921E-02 0.645E-03 .12404E-03 0.296E+01 0.529E+00 0.000E+00 0.000E+00 0.000E+00
BIGSUB   4        0   19.34608E+00 0.107E+02 0.000E+00 0.222E+01 0.220E+01 0.950E+02 0.348E+00 0.683E-01 0.179E+00 0.674E+01 0.407E-02 0.800E-02 0.980E-03 0.307E-05 0.406E-05 0.782E-03 0.648E+01 0.899E-02 0.167E-04 .32960E-07 0.125E-01 0.555E+00 0.000E+00 0.000E+00 0.000E+00
BIGSUB   5        0   19.24789E+00 0.107E+02 0.000E+00 0.223E+01 0.221E+01 0.962E+02 0.291E+00 0.689E-01 0.644E-01 0.667E+01 0.483E-02 0.822E-02 0.100E-02 0.397E-05 0.409E-05 0.805E-03 0.653E+01 0.868E-02 0.293E-04 .34463E-07 0.143E-01 0.550E+00 0.000E+00 0.000E+00 0.000E+00
BIGSUB   6        0   19.21516E+00 0.107E+02 0.000E+00 0.222E+01 0.220E+01 0.103E+03 0.356E+00 0.678E-01 0.104E+00 0.672E+01 0.387E-02 0.691E-02 0.845E-03 0.143E-04 0.591E-05 0.676E-03 0.654E+01 0.903E-02 0.338E-04 .30711E-07 0.116E-01 0.554E+00 0.000E+00 0.000E+00 0.000E+00
BIGSUB   7        0   19.52122E-01 0.107E+02 0.000E+00 0.222E+01 0.221E+01 0.950E+02 0.169E+00 0.697E-01 0.337E-01 0.674E+01 0.470E-02 0.822E-02 0.100E-02 0.414E-05 0.453E-05 0.805E-03 0.663E+01 0.931E-02 0.133E-04 .34779E-07 0.137E-01 0.555E+00 0.000E+00 0.000E+00 0.000E+00
BIGSUB   8        0   19.51507E-01 0.107E+02 0.000E+00 0.222E+01 0.221E+01 0.950E+02 0.556E+00 0.909E-01 0.282E+00 0.668E+01 0.394E-02 0.772E-02 0.943E-03 0.440E-05 0.101E-04 0.753E-03 0.629E+01 0.838E-02 0.112E-03 .85701E-07 0.120E-01 0.551E+00 0.000E+00 0.000E+00 0.000E+00
BIGSUB   9        0   19.22296E+00 0.107E+02 0.000E+00 0.223E+01 0.221E+01 0.981E+02 0.458E+00 0.697E-01 0.164E+00 0.663E+01 0.446E-02 0.805E-02 0.984E-03 0.335E-05 0.428E-05 0.788E-03 0.639E+01 0.856E-02 0.733E-04 .35800E-07 0.136E-01 0.547E+00 0.000E+00 0.000E+00 0.000E+00
BIGSUB  10        0   19.69770E-01 0.107E+02 0.000E+00 0.223E+01 0.219E+01 0.124E+03 0.212E+01 0.166E+00 0.130E+01 0.652E+01 0.401E-02 0.675E-02 0.827E-03 0.402E-04 0.235E-04 0.668E-03 0.500E+01 0.680E-02 0.499E-03 .13064E-06 0.141E-01 0.536E+00 0.000E+00 0.000E+00 0.000E+00
BIGSUB  11        0   19.12671E+00 0.107E+02 0.000E+00 0.223E+01 0.221E+01 0.122E+03 0.150E+01 0.689E-01 0.101E+01 0.672E+01 0.525E-02 0.754E-02 0.926E-03 0.562E-05 0.443E-05 0.751E-03 0.560E+01 0.769E-02 0.438E-03 .34140E-06 0.283E-01 0.554E+00 0.000E+00 0.000E+00 0.000E+00
BIGSUB   1        0   20.35860E+00 0.860E+01 0.000E+00 0.458E+01 0.392E+01 0.104E+03 0.681E+00 0.128E-03 0.461E+00 0.636E+01 0.129E-09 0.587E-06 0.725E-07 0.343E-08 0.312E-07 0.550E-07 0.587E+01 0.938E-02 0.114E-03 .56559E-11 0.000E+00 0.525E+00 0.000E+00 0.000E+00 0.000E+00
BIGSUB   2        0   20.32997E+00 0.860E+01 0.000E+00 0.458E+01 0.394E+01 0.116E+03 0.771E+00 0.554E-01 0.526E+00 0.631E+01 0.483E-09 0.283E-02 0.354E-03 0.225E-04 0.693E-05 0.279E-03 0.571E+01 0.125E-01 0.140E-03 .22349E-05 0.808E-08 0.521E+00 0.000E+00 0.000E+00 0.000E+00
BIGSUB   3        0   20.49752E+00 0.860E+01 0.000E+00 0.458E+01 0.392E+01 0.115E+03 0.179E+01 0.156E+00 0.145E+01 0.627E+01 0.334E-09 0.734E-02 0.918E-03 0.491E-04 0.149E-04 0.724E-03 0.460E+01 0.101E-01 0.668E-03 .20064E-04 0.301E-07 0.517E+00 0.000E+00 0.000E+00 0.000E+00
BIGSUB   4        0   20.34608E+00 0.860E+01 0.000E+00 0.457E+01 0.387E+01 0.933E+02 0.488E+00 0.100E-05 0.192E+00 0.631E+01 0.289E-10 0.100E-08 0.100E-08 0.100E-08 0.100E-08 0.200E-08 0.610E+01 0.991E-02 0.186E-04 .20124E-23 0.000E+00 0.520E+00 0.000E+00 0.000E+00 0.000E+00
BIGSUB   5        0   20.24789E+00 0.860E+01 0.000E+00 0.456E+01 0.386E+01 0.946E+02 0.419E+00 0.324E-03 0.654E-01 0.624E+01 0.234E-09 0.368E-06 0.458E-07 0.849E-07 0.649E-07 0.384E-07 0.616E+01 0.999E-02 0.300E-04 .67942E-11 0.000E+00 0.515E+00 0.000E+00 0.000E+00 0.000E+00
BIGSUB   6        0   20.21516E+00 0.860E+01 0.000E+00 0.457E+01 0.388E+01 0.101E+03 0.464E+00 0.257E-02 0.107E+00 0.623E+01 0.544E-09 0.664E-06 0.821E-07 0.168E-05 0.578E-06 0.651E-07 0.611E+01 0.101E-01 0.348E-04 .69410E-10 0.000E+00 0.514E+00 0.000E+00 0.000E+00 0.000E+00
BIGSUB   7        0   20.52122E-01 0.860E+01 0.000E+00 0.456E+01 0.387E+01 0.933E+02 0.304E+00 0.631E-03 0.342E-01 0.631E+01 0.337E-09 0.233E-05 0.286E-06 0.128E-07 0.151E-06 0.217E-06 0.627E+01 0.113E-01 0.136E-04 .28232E-10 0.000E+00 0.521E+00 0.000E+00 0.000E+00 0.000E+00
BIGSUB   8        0   20.51507E-01 0.860E+01 0.000E+00 0.456E+01 0.387E+01 0.933E+02 0.628E+00 0.915E-02 0.287E+00 0.626E+01 0.502E-09 0.369E-04 0.452E-05 0.148E-06 0.218E-05 0.340E-05 0.595E+01 0.974E-02 0.113E-03 .29849E-08 0.000E+00 0.517E+00 0.000E+00 0.000E+00 0.000E+00
BIGSUB   9        0   20.22296E+00 0.860E+01 0.000E+00 0.456E+01 0.387E+01 0.964E+02 0.560E+00 0.621E-03 0.167E+00 0.621E+01 0.445E-09 0.944E-06 0.116E-06 0.118E-07 0.145E-06 0.946E-07 0.603E+01 0.972E-02 0.751E-04 .35673E-09 0.000E+00 0.512E+00 0.000E+00 0.000E+00 0.000E+00
BIGSUB  10        0   20.69770E-01 0.860E+01 0.000E+00 0.455E+01 0.385E+01 0.123E+03 0.191E+01 0.371E-01 0.132E+01 0.613E+01 0.140E-08 0.429E-05 0.527E-06 0.117E-04 0.707E-05 0.436E-06 0.472E+01 0.777E-02 0.514E-03 .96286E-09 0.000E+00 0.506E+00 0.000E+00 0.000E+00 0.000E+00
BIGSUB  11        0   20.12671E+00 0.860E+01 0.000E+00 0.456E+01 0.391E+01 0.120E+03 0.139E+01 0.215E-02 0.103E+01 0.629E+01 0.847E-09 0.894E-04 0.117E-04 0.787E-06 0.375E-06 0.949E-05 0.522E+01 0.902E-02 0.449E-03 .73694E-08 0.270E-08 0.519E+00 0.000E+00 0.000E+00 0.000E+00
BIGSUB   1        0   21.35860E+00 0.180E+01 0.000E+00 0.444E+01 0.331E+01 0.102E+03 0.146E-04 0.313E-04 0.467E+00 0.244E+01 0.129E-09 0.122E-06 0.158E-07 0.157E-08 0.819E-08 0.131E-07 0.195E+01 0.288E-02 0.116E-03 .84046E-13 0.000E+00 0.201E+00 0.000E+00 0.000E+00 0.000E+00
BIGSUB   2        0   21.32997E+00 0.180E+01 0.000E+00 0.444E+01 0.338E+01 0.114E+03 0.000E+00 0.306E-03 0.535E+00 0.203E+01 0.483E-09 0.165E-05 0.212E-06 0.132E-06 0.145E-06 0.141E-06 0.147E+01 0.260E-02 0.143E-03 .53372E-09 0.000E+00 0.168E+00 0.000E+00 0.000E+00 0.000E+00
BIGSUB   3        0   21.49752E+00 0.180E+01 0.000E+00 0.444E+01 0.338E+01 0.114E+03 0.000E+00 0.976E-03 0.147E+01 0.305E+01 0.334E-09 0.410E-04 0.501E-05 0.153E-06 0.661E-07 0.385E-05 0.152E+01 0.293E-02 0.685E-03 .94725E-09 0.000E+00 0.252E+00 0.000E+00 0.000E+00 0.000E+00
BIGSUB   4        0   21.34608E+00 0.180E+01 0.000E+00 0.444E+01 0.323E+01 0.916E+02 0.000E+00 0.100E-05 0.203E+00 0.252E+01 0.289E-10 0.100E-08 0.100E-08 0.100E-08 0.100E-08 0.200E-08 0.231E+01 0.342E-02 0.203E-04 .12592E-22 0.000E+00 0.208E+00 0.000E+00 0.000E+00 0.000E+00
BIGSUB   5        0   21.24789E+00 0.180E+01 0.000E+00 0.444E+01 0.323E+01 0.928E+02 0.000E+00 0.430E-05 0.663E-01 0.242E+01 0.234E-09 0.269E-07 0.416E-08 0.125E-08 0.156E-08 0.449E-08 0.235E+01 0.346E-02 0.305E-04 .86383E-15 0.000E+00 0.201E+00 0.000E+00 0.000E+00 0.000E+00
BIGSUB   6        0   21.21516E+00 0.180E+01 0.000E+00 0.444E+01 0.327E+01 0.994E+02 0.222E-04 0.228E-04 0.109E+00 0.220E+01 0.544E-09 0.819E-07 0.109E-07 0.254E-08 0.593E-08 0.944E-08 0.208E+01 0.313E-02 0.355E-04 .10743E-13 0.000E+00 0.182E+00 0.000E+00 0.000E+00 0.000E+00
BIGSUB   7        0   21.52122E-01 0.180E+01 0.000E+00 0.444E+01 0.322E+01 0.915E+02 0.684E-04 0.156E-03 0.346E-01 0.244E+01 0.337E-09 0.574E-06 0.711E-07 0.391E-08 0.378E-07 0.547E-07 0.240E+01 0.390E-02 0.137E-04 .41975E-12 0.000E+00 0.202E+00 0.000E+00 0.000E+00 0.000E+00
BIGSUB   8        0   21.51507E-01 0.180E+01 0.000E+00 0.444E+01 0.323E+01 0.916E+02 0.413E-03 0.331E-02 0.290E+00 0.258E+01 0.502E-09 0.134E-04 0.164E-05 0.535E-07 0.789E-06 0.123E-05 0.227E+01 0.337E-02 0.114E-03 .14966E-09 0.000E+00 0.213E+00 0.000E+00 0.000E+00 0.000E+00
BIGSUB   9        0   21.22296E+00 0.180E+01 0.000E+00 0.444E+01 0.324E+01 0.946E+02 0.634E-05 0.337E-03 0.169E+00 0.248E+01 0.445E-09 0.219E-06 0.277E-07 0.655E-08 0.819E-07 0.221E-07 0.230E+01 0.337E-02 0.763E-04 .86977E-10 0.000E+00 0.205E+00 0.000E+00 0.000E+00 0.000E+00
BIGSUB  10        0   21.69770E-01 0.180E+01 0.000E+00 0.445E+01 0.333E+01 0.121E+03 0.000E+00 0.544E-04 0.134E+01 0.335E+01 0.140E-08 0.203E-06 0.255E-07 0.121E-07 0.109E-07 0.213E-07 0.196E+01 0.296E-02 0.525E-03 .73434E-14 0.000E+00 0.277E+00 0.000E+00 0.000E+00 0.000E+00
BIGSUB  11        0   21.12671E+00 0.180E+01 0.000E+00 0.444E+01 0.337E+01 0.118E+03 0.000E+00 0.118E-04 0.104E+01 0.294E+01 0.847E-09 0.146E-06 0.186E-07 0.140E-08 0.243E-08 0.160E-07 0.186E+01 0.297E-02 0.456E-03 .10114E-14 0.000E+00 0.243E+00 0.000E+00 0.000E+00 0.000E+00
BIGSUB   1        0   22.35860E+00 0.810E+01 0.000E+00 0.437E+01 0.377E+01 0.103E+03 0.637E-01 0.839E-05 0.472E+00 0.328E+01 0.129E-09 0.295E-07 0.448E-08 0.114E-08 0.275E-08 0.461E-08 0.279E+01 0.139E-02 0.117E-03 .12289E-14 0.000E+00 0.273E+00 0.000E+00 0.000E+00 0.000E+00
BIGSUB   2        0   22.32997E+00 0.810E+01 0.000E+00 0.437E+01 0.379E+01 0.116E+03 0.975E-01 0.358E-01 0.542E+00 0.326E+01 0.859E-03 0.143E-02 0.178E-03 0.211E-04 0.414E-05 0.140E-03 0.266E+01 0.202E-02 0.146E-03 .30675E-05 0.119E+00 0.268E+00 0.000E+00 0.000E+00 0.000E+00
BIGSUB   3        0   22.49752E+00 0.810E+01 0.000E+00 0.437E+01 0.378E+01 0.115E+03 0.426E+00 0.114E+00 0.149E+01 0.383E+01 0.257E-02 0.408E-02 0.510E-03 0.506E-04 0.103E-04 0.402E-03 0.217E+01 0.195E-02 0.697E-03 .11925E-04 0.377E+00 0.309E+00 0.000E+00 0.000E+00 0.000E+00
BIGSUB   4        0   22.34608E+00 0.810E+01 0.000E+00 0.437E+01 0.373E+01 0.927E+02 0.000E+00 0.100E-05 0.214E+00 0.315E+01 0.289E-10 0.100E-08 0.100E-08 0.100E-08 0.100E-08 0.200E-08 0.293E+01 0.146E-02 0.218E-04 .80577E-23 0.000E+00 0.262E+00 0.000E+00 0.000E+00 0.000E+00
BIGSUB   5        0   22.24789E+00 0.810E+01 0.000E+00 0.436E+01 0.372E+01 0.938E+02 0.269E-01 0.165E-03 0.671E-01 0.310E+01 0.234E-09 0.465E-08 0.144E-08 0.774E-07 0.344E-07 0.235E-08 0.302E+01 0.142E-02 0.308E-04 .20606E-11 0.000E+00 0.258E+00 0.000E+00 0.000E+00 0.000E+00
BIGSUB   6        0   22.21516E+00 0.810E+01 0.000E+00 0.436E+01 0.373E+01 0.100E+03 0.372E-01 0.125E-02 0.112E+00 0.310E+01 0.544E-09 0.157E-07 0.280E-08 0.797E-06 0.263E-06 0.335E-08 0.298E+01 0.154E-02 0.360E-04 .35631E-10 0.000E+00 0.257E+00 0.000E+00 0.000E+00 0.000E+00
BIGSUB   7        0   22.52122E-01 0.810E+01 0.000E+00 0.436E+01 0.372E+01 0.924E+02 0.159E-01 0.390E-04 0.350E-01 0.316E+01 0.337E-09 0.142E-06 0.182E-07 0.171E-08 0.100E-07 0.149E-07 0.312E+01 0.150E-02 0.137E-04 .61385E-14 0.000E+00 0.262E+00 0.000E+00 0.000E+00 0.000E+00
BIGSUB   8        0   22.51507E-01 0.810E+01 0.000E+00 0.436E+01 0.372E+01 0.926E+02 0.133E+00 0.121E-02 0.293E+00 0.323E+01 0.502E-09 0.487E-05 0.597E-06 0.201E-07 0.288E-06 0.450E-06 0.292E+01 0.137E-02 0.115E-03 .72571E-11 0.000E+00 0.269E+00 0.000E+00 0.000E+00 0.000E+00
BIGSUB   9        0   22.22296E+00 0.810E+01 0.000E+00 0.436E+01 0.373E+01 0.957E+02 0.633E-01 0.196E-03 0.171E+00 0.313E+01 0.445E-09 0.129E-06 0.166E-07 0.420E-08 0.484E-07 0.138E-07 0.294E+01 0.141E-02 0.770E-04 .20276E-10 0.000E+00 0.260E+00 0.000E+00 0.000E+00 0.000E+00
BIGSUB  10        0   22.69770E-01 0.810E+01 0.000E+00 0.436E+01 0.372E+01 0.122E+03 0.578E+00 0.217E-01 0.136E+01 0.384E+01 0.140E-08 0.291E-07 0.443E-08 0.113E-04 0.415E-05 0.469E-08 0.241E+01 0.142E-02 0.533E-03 .41330E-09 0.000E+00 0.319E+00 0.000E+00 0.000E+00 0.000E+00
BIGSUB  11        0   22.12671E+00 0.810E+01 0.000E+00 0.436E+01 0.377E+01 0.120E+03 0.367E+00 0.119E-02 0.106E+01 0.370E+01 0.101E-04 0.365E-04 0.478E-05 0.767E-06 0.212E-06 0.388E-05 0.260E+01 0.140E-02 0.461E-03 .22180E-08 0.289E-03 0.308E+00 0.000E+00 0.000E+00 0.000E+00
BIGSUB   1        0   23.35860E+00 0.000E+00 0.000E+00 0.417E+01 0.225E+01 0.101E+03 0.615E-05 0.281E-05 0.476E+00 0.135E+01 0.129E-09 0.793E-08 0.185E-08 0.103E-08 0.143E-08 0.263E-08 0.853E+00 0.401E-03 0.118E-03 .17965E-16 0.000E+00 0.112E+00 0.000E+00 0.000E+00 0.000E+00
BIGSUB   2        0   23.32997E+00 0.000E+00 0.000E+00 0.417E+01 0.232E+01 0.113E+03 0.000E+00 0.853E-04 0.548E+00 0.120E+01 0.483E-09 0.313E-06 0.410E-07 0.631E-07 0.408E-07 0.284E-07 0.631E+00 0.360E-03 0.147E-03 .92248E-11 0.000E+00 0.992E-01 0.000E+00 0.000E+00 0.000E+00
BIGSUB   3        0   23.49752E+00 0.000E+00 0.000E+00 0.417E+01 0.231E+01 0.113E+03 0.000E+00 0.759E-03 0.150E+01 0.222E+01 0.334E-09 0.234E-04 0.286E-05 0.191E-06 0.501E-07 0.220E-05 0.663E+00 0.490E-03 0.704E-03 .23864E-09 0.000E+00 0.183E+00 0.000E+00 0.000E+00 0.000E+00
BIGSUB   4        0   23.34608E+00 0.000E+00 0.000E+00 0.417E+01 0.217E+01 0.905E+02 0.000E+00 0.100E-05 0.223E+00 0.124E+01 0.289E-10 0.100E-08 0.100E-08 0.100E-08 0.100E-08 0.200E-08 0.101E+01 0.502E-03 0.230E-04 .52139E-22 0.000E+00 0.102E+00 0.000E+00 0.000E+00 0.000E+00
BIGSUB   5        0   23.24789E+00 0.000E+00 0.000E+00 0.418E+01 0.217E+01 0.916E+02 0.000E+00 0.139E-05 0.677E-01 0.112E+01 0.234E-09 0.154E-08 0.107E-08 0.116E-08 0.108E-08 0.205E-08 0.104E+01 0.493E-03 0.309E-04 .29610E-19 0.000E+00 0.924E-01 0.000E+00 0.000E+00 0.000E+00
BIGSUB   6        0   23.21516E+00 0.000E+00 0.000E+00 0.418E+01 0.221E+01 0.982E+02 0.934E-05 0.384E-05 0.113E+00 0.103E+01 0.544E-09 0.379E-08 0.134E-08 0.214E-08 0.156E-08 0.225E-08 0.910E+00 0.479E-03 0.363E-04 .11464E-17 0.000E+00 0.853E-01 0.000E+00 0.000E+00 0.000E+00
BIGSUB   7        0   23.52122E-01 0.000E+00 0.000E+00 0.418E+01 0.216E+01 0.903E+02 0.289E-04 0.103E-04 0.353E-01 0.111E+01 0.337E-09 0.356E-07 0.522E-08 0.117E-08 0.322E-08 0.517E-08 0.107E+01 0.516E-03 0.137E-04 .89758E-16 0.000E+00 0.917E-01 0.000E+00 0.000E+00 0.000E+00
BIGSUB   8        0   23.51507E-01 0.000E+00 0.000E+00 0.418E+01 0.217E+01 0.904E+02 0.175E-03 0.441E-03 0.296E+00 0.132E+01 0.502E-09 0.178E-05 0.218E-06 0.793E-08 0.106E-06 0.165E-06 0.101E+01 0.471E-03 0.115E-03 .34875E-12 0.000E+00 0.109E+00 0.000E+00 0.000E+00 0.000E+00
BIGSUB   9        0   23.22296E+00 0.000E+00 0.000E+00 0.418E+01 0.218E+01 0.935E+02 0.268E-05 0.117E-03 0.173E+00 0.121E+01 0.445E-09 0.777E-07 0.104E-07 0.289E-08 0.292E-07 0.907E-08 0.102E+01 0.498E-03 0.773E-04 .45999E-11 0.000E+00 0.997E-01 0.000E+00 0.000E+00 0.000E+00
BIGSUB  10        0   23.69770E-01 0.000E+00 0.000E+00 0.418E+01 0.226E+01 0.120E+03 0.000E+00 0.212E-04 0.137E+01 0.238E+01 0.140E-08 0.518E-08 0.151E-08 0.112E-07 0.501E-08 0.239E-08 0.955E+00 0.672E-03 0.537E-03 .18797E-15 0.000E+00 0.196E+00 0.000E+00 0.000E+00 0.000E+00
BIGSUB  11        0   23.12671E+00 0.000E+00 0.000E+00 0.418E+01 0.230E+01 0.117E+03 0.000E+00 0.123E-05 0.107E+01 0.199E+01 0.847E-09 0.610E-08 0.164E-08 0.107E-08 0.102E-08 0.250E-08 0.879E+00 0.552E-03 0.463E-03 .11506E-19 0.000E+00 0.164E+00 0.000E+00 0.000E+00 0.000E+00
BIGSUB   1        0   24.35860E+00 0.000E+00 0.000E+00 0.475E+01 0.202E+01 0.992E+02 0.000E+00 0.144E-05 0.479E+00 0.791E+00 0.129E-09 0.270E-08 0.121E-08 0.101E-08 0.110E-08 0.215E-08 0.289E+00 0.135E-03 0.118E-03 .26389E-18 0.000E+00 0.657E-01 0.000E+00 0.000E+00 0.000E+00
BIGSUB   2        0   24.32997E+00 0.000E+00 0.000E+00 0.475E+01 0.212E+01 0.111E+03 0.000E+00 0.352E-04 0.553E+00 0.790E+00 0.483E-09 0.137E-06 0.184E-07 0.252E-07 0.175E-07 0.135E-07 0.214E+00 0.118E-03 0.148E-03 .78715E-12 0.000E+00 0.656E-01 0.000E+00 0.000E+00 0.000E+00
BIGSUB   3        0   24.49752E+00 0.000E+00 0.000E+00 0.475E+01 0.211E+01 0.111E+03 0.000E+00 0.233E-04 0.151E+01 0.179E+01 0.334E-09 0.510E-06 0.632E-07 0.663E-08 0.266E-08 0.495E-07 0.217E+00 0.146E-03 0.706E-03 .10478E-12 0.000E+00 0.149E+00 0.000E+00 0.000E+00 0.000E+00
BIGSUB   4        0   24.34608E+00 0.000E+00 0.000E+00 0.475E+01 0.192E+01 0.886E+02 0.000E+00 0.100E-05 0.231E+00 0.587E+00 0.289E-10 0.100E-08 0.100E-08 0.100E-08 0.100E-08 0.200E-08 0.345E+00 0.172E-03 0.240E-04 .23231E-21 0.000E+00 0.488E-01 0.000E+00 0.000E+00 0.000E+00
BIGSUB   5        0   24.24789E+00 0.000E+00 0.000E+00 0.475E+01 0.192E+01 0.897E+02 0.000E+00 0.101E-05 0.682E-01 0.439E+00 0.234E-09 0.108E-08 0.101E-08 0.100E-08 0.100E-08 0.201E-08 0.362E+00 0.174E-03 0.309E-04 .62260E-21 0.000E+00 0.365E-01 0.000E+00 0.000E+00 0.000E+00
BIGSUB   6        0   24.21516E+00 0.000E+00 0.000E+00 0.475E+01 0.197E+01 0.962E+02 0.000E+00 0.113E-05 0.115E+00 0.441E+00 0.544E-09 0.153E-08 0.106E-08 0.100E-08 0.103E-08 0.205E-08 0.316E+00 0.170E-03 0.363E-04 .49936E-20 0.000E+00 0.367E-01 0.000E+00 0.000E+00 0.000E+00
BIGSUB   7        0   24.52122E-01 0.000E+00 0.000E+00 0.475E+01 0.191E+01 0.884E+02 0.000E+00 0.329E-05 0.355E-01 0.408E+00 0.337E-09 0.949E-08 0.203E-08 0.104E-08 0.154E-08 0.277E-08 0.368E+00 0.177E-03 0.136E-04 .13169E-17 0.000E+00 0.339E-01 0.000E+00 0.000E+00 0.000E+00
BIGSUB   8        0   24.51507E-01 0.000E+00 0.000E+00 0.475E+01 0.191E+01 0.885E+02 0.322E-06 0.161E-03 0.297E+00 0.662E+00 0.502E-09 0.648E-06 0.801E-07 0.351E-08 0.391E-07 0.615E-07 0.347E+00 0.163E-03 0.114E-03 .16746E-13 0.000E+00 0.550E-01 0.000E+00 0.000E+00 0.000E+00
BIGSUB   9        0   24.22296E+00 0.000E+00 0.000E+00 0.475E+01 0.193E+01 0.916E+02 0.498E-08 0.702E-04 0.187E+00 0.561E+00 0.445E-09 0.472E-07 0.665E-08 0.213E-08 0.179E-07 0.625E-08 0.360E+00 0.183E-03 0.781E-04 .10273E-11 0.000E+00 0.466E-01 0.000E+00 0.000E+00 0.000E+00
BIGSUB  10        0   24.69770E-01 0.000E+00 0.000E+00 0.474E+01 0.205E+01 0.118E+03 0.000E+00 0.132E-05 0.138E+01 0.186E+01 0.140E-08 0.163E-08 0.107E-08 0.114E-08 0.107E-08 0.205E-08 0.427E+00 0.373E-03 0.538E-03 .93077E-20 0.000E+00 0.155E+00 0.000E+00 0.000E+00 0.000E+00
BIGSUB  11        0   24.12671E+00 0.000E+00 0.000E+00 0.475E+01 0.209E+01 0.115E+03 0.000E+00 0.101E-05 0.107E+01 0.149E+01 0.847E-09 0.116E-08 0.101E-08 0.999E-09 0.100E-08 0.201E-08 0.376E+00 0.283E-03 0.462E-03 .43686E-21 0.000E+00 0.124E+00 0.000E+00 0.000E+00 0.000E+00
BIGSUB   1        0   25.35860E+00 0.660E+01 0.000E+00 0.538E+01 0.371E+01 0.100E+03 0.000E+00 0.111E-05 0.481E+00 0.202E+01 0.129E-09 0.142E-08 0.105E-08 0.100E-08 0.102E-08 0.204E-08 0.152E+01 0.187E-03 0.117E-03 .38982E-20 0.000E+00 0.165E+00 0.000E+00 0.000E+00 0.000E+00
BIGSUB   2        0   25.32997E+00 0.660E+01 0.000E+00 0.538E+01 0.379E+01 0.112E+03 0.000E+00 0.786E-02 0.556E+00 0.205E+01 0.268E-03 0.325E-03 0.404E-04 0.955E-05 0.694E-06 0.320E-04 0.146E+01 0.341E-03 0.148E-03 .10394E-05 0.462E-01 0.167E+00 0.000E+00 0.000E+00 0.000E+00
BIGSUB   3        0   25.49752E+00 0.660E+01 0.000E+00 0.538E+01 0.386E+01 0.112E+03 0.000E+00 0.432E-01 0.152E+01 0.272E+01 0.120E-02 0.177E-02 0.219E-03 0.389E-04 0.331E-05 0.172E-03 0.110E+01 0.236E-03 0.705E-03 .27665E-05 0.132E+00 0.219E+00 0.000E+00 0.000E+00 0.000E+00
BIGSUB   4        0   25.34608E+00 0.660E+01 0.000E+00 0.538E+01 0.363E+01 0.893E+02 0.000E+00 0.100E-05 0.238E+00 0.184E+01 0.289E-10 0.100E-08 0.100E-08 0.100E-08 0.100E-08 0.200E-08 0.159E+01 0.185E-03 0.247E-04 .23687E-22 0.000E+00 0.150E+00 0.000E+00 0.000E+00 0.000E+00
BIGSUB   5        0   25.24789E+00 0.660E+01 0.000E+00 0.537E+01 0.357E+01 0.903E+02 0.000E+00 0.769E-05 0.685E-01 0.179E+01 0.234E-09 0.101E-08 0.100E-08 0.838E-08 0.233E-08 0.200E-08 0.171E+01 0.216E-03 0.307E-04 .89989E-15 0.000E+00 0.146E+00 0.000E+00 0.000E+00 0.000E+00
BIGSUB   6        0   25.21516E+00 0.660E+01 0.000E+00 0.538E+01 0.363E+01 0.969E+02 0.000E+00 0.621E-04 0.116E+00 0.183E+01 0.544E-09 0.110E-08 0.101E-08 0.764E-07 0.131E-07 0.201E-08 0.171E+01 0.338E-03 0.361E-04 .11601E-13 0.000E+00 0.150E+00 0.000E+00 0.000E+00 0.000E+00
BIGSUB   7        0   25.52122E-01 0.660E+01 0.000E+00 0.538E+01 0.352E+01 0.889E+02 0.000E+00 0.156E-05 0.356E-01 0.186E+01 0.337E-09 0.308E-08 0.125E-08 0.100E-08 0.113E-08 0.218E-08 0.181E+01 0.235E-03 0.135E-04 .19395E-19 0.000E+00 0.152E+00 0.000E+00 0.000E+00 0.000E+00
BIGSUB   8        0   25.51507E-01 0.660E+01 0.000E+00 0.538E+01 0.359E+01 0.891E+02 0.000E+00 0.594E-04 0.299E+00 0.198E+01 0.502E-09 0.237E-06 0.298E-07 0.189E-08 0.149E-07 0.236E-07 0.166E+01 0.216E-03 0.113E-03 .80572E-15 0.000E+00 0.162E+00 0.000E+00 0.000E+00 0.000E+00
BIGSUB   9        0   25.22296E+00 0.660E+01 0.000E+00 0.537E+01 0.360E+01 0.922E+02 0.000E+00 0.426E-04 0.200E+00 0.186E+01 0.445E-09 0.288E-07 0.441E-08 0.168E-08 0.112E-07 0.456E-08 0.165E+01 0.210E-03 0.784E-04 .22752E-12 0.000E+00 0.152E+00 0.000E+00 0.000E+00 0.000E+00
BIGSUB  10        0   25.69770E-01 0.660E+01 0.000E+00 0.537E+01 0.375E+01 0.119E+03 0.000E+00 0.135E-02 0.139E+01 0.281E+01 0.140E-08 0.109E-08 0.101E-08 0.158E-05 0.258E-06 0.200E-08 0.137E+01 0.363E-03 0.536E-03 .35160E-12 0.000E+00 0.230E+00 0.000E+00 0.000E+00 0.000E+00
BIGSUB  11        0   25.12671E+00 0.660E+01 0.000E+00 0.537E+01 0.374E+01 0.116E+03 0.000E+00 0.787E-04 0.108E+01 0.265E+01 0.847E-09 0.101E-08 0.100E-08 0.109E-06 0.146E-07 0.200E-08 0.152E+01 0.318E-03 0.459E-03 .45796E-13 0.000E+00 0.217E+00 0.000E+00 0.000E+00 0.000E+00
BIGSUB   1        0   26.35860E+00 0.000E+00 0.000E+00 0.499E+01 0.220E+01 0.978E+02 0.000E+00 0.103E-05 0.482E+00 0.989E+00 0.129E-09 0.110E-08 0.101E-08 0.999E-09 0.100E-08 0.201E-08 0.484E+00 0.602E-04 0.116E-03 .23151E-21 0.000E+00 0.810E-01 0.000E+00 0.000E+00 0.000E+00
BIGSUB   2        0   26.32997E+00 0.000E+00 0.000E+00 0.499E+01 0.231E+01 0.110E+03 0.000E+00 0.937E-05 0.559E+00 0.947E+00 0.483E-09 0.281E-07 0.446E-08 0.109E-07 0.501E-08 0.429E-08 0.366E+00 0.592E-04 0.146E-03 .96556E-14 0.000E+00 0.775E-01 0.000E+00 0.000E+00 0.000E+00
BIGSUB   3        0   26.49752E+00 0.000E+00 0.000E+00 0.499E+01 0.235E+01 0.109E+03 0.000E+00 0.385E-03 0.152E+01 0.194E+01 0.334E-09 0.141E-04 0.173E-05 0.221E-06 0.252E-07 0.133E-05 0.358E+00 0.699E-04 0.700E-03 .37549E-10 0.000E+00 0.159E+00 0.000E+00 0.000E+00 0.000E+00
BIGSUB   4        0   26.34608E+00 0.000E+00 0.000E+00 0.499E+01 0.210E+01 0.872E+02 0.000E+00 0.100E-05 0.244E+00 0.801E+00 0.289E-10 0.100E-08 0.100E-08 0.100E-08 0.100E-08 0.200E-08 0.546E+00 0.635E-04 0.253E-04 .12471E-21 0.000E+00 0.656E-01 0.000E+00 0.000E+00 0.000E+00
BIGSUB   5        0   26.24789E+00 0.000E+00 0.000E+00 0.498E+01 0.208E+01 0.882E+02 0.000E+00 0.101E-05 0.687E-01 0.668E+00 0.234E-09 0.100E-08 0.100E-08 0.101E-08 0.100E-08 0.200E-08 0.591E+00 0.778E-04 0.303E-04 .22527E-21 0.000E+00 0.547E-01 0.000E+00 0.000E+00 0.000E+00
BIGSUB   6        0   26.21516E+00 0.000E+00 0.000E+00 0.498E+01 0.214E+01 0.948E+02 0.000E+00 0.115E-05 0.117E+00 0.640E+00 0.544E-09 0.102E-08 0.100E-08 0.117E-08 0.102E-08 0.200E-08 0.512E+00 0.959E-04 0.358E-04 .87403E-21 0.000E+00 0.524E-01 0.000E+00 0.000E+00 0.000E+00
BIGSUB   7        0   26.52122E-01 0.000E+00 0.000E+00 0.498E+01 0.205E+01 0.868E+02 0.000E+00 0.113E-05 0.357E-01 0.664E+00 0.337E-09 0.151E-08 0.106E-08 0.999E-09 0.103E-08 0.204E-08 0.623E+00 0.808E-04 0.133E-04 .48698E-21 0.000E+00 0.544E-01 0.000E+00 0.000E+00 0.000E+00
BIGSUB   8        0   26.51507E-01 0.000E+00 0.000E+00 0.498E+01 0.208E+01 0.870E+02 0.000E+00 0.223E-04 0.299E+00 0.889E+00 0.502E-09 0.869E-07 0.115E-07 0.130E-08 0.603E-08 0.985E-08 0.573E+00 0.753E-04 0.111E-03 .38878E-16 0.000E+00 0.728E-01 0.000E+00 0.000E+00 0.000E+00
BIGSUB   9        0   26.22296E+00 0.000E+00 0.000E+00 0.498E+01 0.210E+01 0.901E+02 0.000E+00 0.260E-04 0.211E+00 0.798E+00 0.445E-09 0.178E-07 0.305E-08 0.141E-08 0.711E-08 0.354E-08 0.573E+00 0.806E-04 0.783E-04 .50191E-13 0.000E+00 0.653E-01 0.000E+00 0.000E+00 0.000E+00
BIGSUB  10        0   26.69770E-01 0.000E+00 0.000E+00 0.498E+01 0.226E+01 0.117E+03 0.000E+00 0.229E-05 0.139E+01 0.199E+01 0.140E-08 0.101E-08 0.999E-09 0.250E-08 0.123E-08 0.200E-08 0.540E+00 0.218E-03 0.531E-03 .12845E-18 0.000E+00 0.163E+00 0.000E+00 0.000E+00 0.000E+00
BIGSUB  11        0   26.12671E+00 0.000E+00 0.000E+00 0.498E+01 0.227E+01 0.114E+03 0.000E+00 0.999E-06 0.108E+01 0.164E+01 0.847E-09 0.100E-08 0.999E-09 0.100E-08 0.999E-09 0.200E-08 0.516E+00 0.166E-03 0.454E-03 .16901E-21 0.000E+00 0.134E+00 0.000E+00 0.000E+00 0.000E+00
BIGSUB   1        0   27.35860E+00 0.840E+01 0.000E+00 0.501E+01 0.368E+01 0.997E+02 0.497E-03 0.100E-05 0.483E+00 0.260E+01 0.129E-09 0.102E-08 0.100E-08 0.999E-09 0.100E-08 0.200E-08 0.209E+01 0.224E-03 0.114E-03 .13456E-22 0.000E+00 0.213E+00 0.000E+00 0.000E+00 0.000E+00
[...]
BIGSUB   6        0  360.21516E+00 0.239E+02 0.000E+00 0.383E+01 0.341E+01 0.101E+03 0.117E+00 0.283E+01 0.583E-01 0.107E+02 0.131E+00 0.171E+00 0.210E-01 0.659E-03 0.123E-03 0.162E-01 0.777E+01 0.453E-02 0.251E-04 .60146E-03 0.122E+02 0.664E+00 0.000E+00 0.000E+00 0.000E+00
BIGSUB   7        0  360.52122E-01 0.239E+02 0.000E+00 0.383E+01 0.339E+01 0.927E+02 0.579E-01 0.308E+01 0.236E-01 0.107E+02 0.152E+00 0.192E+00 0.235E-01 0.320E-03 0.938E-04 0.181E-01 0.757E+01 0.235E-02 0.113E-04 .63859E-03 0.139E+02 0.641E+00 0.000E+00 0.000E+00 0.000E+00
BIGSUB   8        0  360.51507E-01 0.239E+02 0.000E+00 0.383E+01 0.339E+01 0.929E+02 0.486E+00 0.306E+01 0.198E+00 0.104E+02 0.129E+00 0.187E+00 0.229E-01 0.302E-03 0.120E-03 0.176E-01 0.713E+01 0.279E-02 0.945E-04 .63859E-03 0.123E+02 0.623E+00 0.000E+00 0.000E+00 0.000E+00
BIGSUB   9        0  360.22296E+00 0.239E+02 0.000E+00 0.383E+01 0.340E+01 0.960E+02 0.212E+00 0.310E+01 0.108E+00 0.104E+02 0.148E+00 0.189E+00 0.232E-01 0.286E-03 0.927E-04 0.178E-01 0.719E+01 0.315E-02 0.498E-04 .67147E-03 0.140E+02 0.616E+00 0.000E+00 0.000E+00 0.000E+00
BIGSUB  10        0  360.69770E-01 0.239E+02 0.000E+00 0.383E+01 0.342E+01 0.122E+03 0.153E+01 0.363E+01 0.847E+00 0.999E+01 0.147E+00 0.189E+00 0.233E-01 0.426E-03 0.143E-03 0.184E-01 0.548E+01 0.256E-02 0.368E-03 .12356E-02 0.162E+02 0.536E+00 0.000E+00 0.000E+00 0.000E+00
BIGSUB  11        0  360.12671E+00 0.239E+02 0.000E+00 0.383E+01 0.344E+01 0.120E+03 0.123E+01 0.283E+01 0.652E+00 0.101E+02 0.173E+00 0.151E+00 0.186E-01 0.337E-03 0.807E-04 0.145E-01 0.664E+01 0.306E-02 0.291E-03 .59650E-03 0.167E+02 0.617E+00 0.000E+00 0.000E+00 0.000E+00
BIGSUB   1        0  361.35860E+00 0.460E+01 0.000E+00 0.289E+01 0.282E+01 0.104E+03 0.324E-01 0.849E-03 0.313E+00 0.348E+01 0.129E-09 0.459E-05 0.562E-06 0.756E-07 0.199E-06 0.365E-06 0.315E+01 0.107E-02 0.708E-04 .16565E-09 0.000E+00 0.288E+00 0.000E+00 0.000E+00 0.000E+00
BIGSUB   2        0  361.32997E+00 0.460E+01 0.000E+00 0.289E+01 0.277E+01 0.116E+03 0.512E-01 0.372E-02 0.329E+00 0.298E+01 0.483E-09 0.582E-04 0.737E-05 0.578E-05 0.128E-05 0.513E-05 0.263E+01 0.155E-02 0.744E-04 .64444E-07 0.258E-08 0.247E+00 0.000E+00 0.000E+00 0.000E+00
BIGSUB   3        0  361.49752E+00 0.460E+01 0.000E+00 0.289E+01 0.276E+01 0.116E+03 0.210E+00 0.144E-01 0.993E+00 0.350E+01 0.334E-09 0.596E-04 0.776E-05 0.119E-04 0.269E-06 0.680E-05 0.245E+01 0.189E-02 0.334E-03 .30886E-06 0.175E-07 0.290E+00 0.000E+00 0.000E+00 0.000E+00
BIGSUB   4        0  361.34608E+00 0.460E+01 0.000E+00 0.289E+01 0.281E+01 0.934E+02 0.000E+00 0.100E-05 0.000E+00 0.353E+01 0.289E-10 0.298E-07 0.373E-08 0.100E-08 0.100E-08 0.286E-08 0.352E+01 0.134E-02 0.100E-11 .98942E-22 0.000E+00 0.292E+00 0.000E+00 0.000E+00 0.000E+00
BIGSUB   5        0  361.24789E+00 0.460E+01 0.000E+00 0.289E+01 0.281E+01 0.942E+02 0.130E-01 0.577E-03 0.439E-01 0.367E+01 0.234E-09 0.140E-04 0.172E-05 0.603E-07 0.563E-07 0.135E-05 0.362E+01 0.116E-02 0.209E-04 .52263E-09 0.000E+00 0.304E+00 0.000E+00 0.000E+00 0.000E+00
BIGSUB   6        0  361.21516E+00 0.460E+01 0.000E+00 0.289E+01 0.280E+01 0.101E+03 0.176E-01 0.124E-02 0.595E-01 0.339E+01 0.544E-09 0.135E-04 0.167E-05 0.114E-06 0.238E-06 0.130E-05 0.332E+01 0.143E-02 0.257E-04 .72762E-09 0.000E+00 0.281E+00 0.000E+00 0.000E+00 0.000E+00
BIGSUB   7        0  361.52122E-01 0.460E+01 0.000E+00 0.289E+01 0.280E+01 0.927E+02 0.707E-02 0.352E-02 0.241E-01 0.376E+01 0.337E-09 0.108E-05 0.133E-06 0.296E-06 0.814E-06 0.961E-07 0.373E+01 0.926E-03 0.115E-04 .82701E-09 0.000E+00 0.312E+00 0.000E+00 0.000E+00 0.000E+00
BIGSUB   8        0  361.51507E-01 0.460E+01 0.000E+00 0.289E+01 0.281E+01 0.930E+02 0.589E-01 0.310E-01 0.202E+00 0.374E+01 0.502E-09 0.200E-03 0.245E-04 0.226E-05 0.707E-05 0.175E-04 0.350E+01 0.108E-02 0.958E-04 .18263E-06 0.000E+00 0.310E+00 0.000E+00 0.000E+00 0.000E+00
BIGSUB   9        0  361.22296E+00 0.460E+01 0.000E+00 0.289E+01 0.281E+01 0.962E+02 0.309E-01 0.238E-02 0.110E+00 0.364E+01 0.626E-09 0.273E-04 0.335E-05 0.159E-06 0.419E-06 0.262E-05 0.352E+01 0.123E-02 0.511E-04 .98913E-08 0.000E+00 0.302E+00 0.000E+00 0.000E+00 0.000E+00
BIGSUB  10        0  361.69770E-01 0.460E+01 0.000E+00 0.289E+01 0.282E+01 0.123E+03 0.269E+00 0.509E-02 0.864E+00 0.370E+01 0.140E-08 0.148E-03 0.183E-04 0.570E-06 0.427E-06 0.146E-04 0.280E+01 0.125E-02 0.378E-03 .13829E-07 0.000E+00 0.307E+00 0.000E+00 0.000E+00 0.000E+00
BIGSUB  11        0  361.12671E+00 0.460E+01 0.000E+00 0.289E+01 0.282E+01 0.120E+03 0.181E+00 0.346E-02 0.666E+00 0.356E+01 0.847E-09 0.956E-04 0.117E-04 0.333E-06 0.239E-06 0.926E-05 0.286E+01 0.102E-02 0.299E-03 .10455E-07 0.000E+00 0.295E+00 0.000E+00 0.000E+00 0.000E+00
BIGSUB   1        0  362.35860E+00 0.147E+02 0.000E+00 0.389E+01 0.348E+01 0.105E+03 0.784E+00 0.504E+00 0.320E+00 0.856E+01 0.214E-01 0.249E-01 0.305E-02 0.381E-04 0.136E-04 0.236E-02 0.772E+01 0.863E-02 0.733E-04 .57663E-05 0.536E+00 0.658E+00 0.000E+00 0.000E+00 0.000E+00
BIGSUB   2        0  362.32997E+00 0.147E+02 0.000E+00 0.389E+01 0.347E+01 0.116E+03 0.106E+01 0.740E+00 0.338E+00 0.915E+01 0.341E-01 0.211E-01 0.269E-02 0.182E-03 0.385E-04 0.234E-02 0.806E+01 0.169E-01 0.773E-04 .12204E-04 0.318E+01 0.687E+00 0.000E+00 0.000E+00 0.000E+00
BIGSUB   3        0  362.49752E+00 0.147E+02 0.000E+00 0.389E+01 0.346E+01 0.116E+03 0.274E+01 0.104E+01 0.101E+01 0.801E+01 0.461E-01 0.205E-01 0.273E-02 0.292E-03 0.614E-04 0.259E-02 0.591E+01 0.113E-01 0.347E-03 .28271E-04 0.853E+01 0.569E+00 0.000E+00 0.000E+00 0.000E+00
BIGSUB   4        0  362.34608E+00 0.147E+02 0.000E+00 0.389E+01 0.344E+01 0.938E+02 0.408E+00 0.652E+00 0.000E+00 0.833E+01 0.224E-01 0.335E-01 0.411E-02 0.423E-04 0.197E-04 0.316E-02 0.768E+01 0.106E-01 0.100E-11 .82181E-05 0.607E+00 0.627E+00 0.000E+00 0.000E+00 0.000E+00
BIGSUB   5        0  362.24789E+00 0.147E+02 0.000E+00 0.388E+01 0.343E+01 0.950E+02 0.177E+00 0.640E+00 0.447E-01 0.829E+01 0.255E-01 0.319E-01 0.391E-02 0.470E-04 0.180E-04 0.302E-02 0.760E+01 0.794E-02 0.215E-04 .80275E-05 0.658E+00 0.624E+00 0.000E+00 0.000E+00 0.000E+00
BIGSUB   6        0  362.21516E+00 0.147E+02 0.000E+00 0.389E+01 0.345E+01 0.102E+03 0.279E+00 0.586E+00 0.608E-01 0.856E+01 0.207E-01 0.284E-01 0.349E-02 0.107E-03 0.260E-04 0.269E-02 0.791E+01 0.103E-01 0.264E-04 .90663E-05 0.556E+00 0.653E+00 0.000E+00 0.000E+00 0.000E+00
BIGSUB   7        0  362.52122E-01 0.147E+02 0.000E+00 0.389E+01 0.343E+01 0.934E+02 0.658E-01 0.629E+00 0.245E-01 0.843E+01 0.240E-01 0.320E-01 0.392E-02 0.521E-04 0.191E-04 0.302E-02 0.777E+01 0.802E-02 0.116E-04 .70911E-05 0.602E+00 0.637E+00 0.000E+00 0.000E+00 0.000E+00
BIGSUB   8        0  362.51507E-01 0.147E+02 0.000E+00 0.389E+01 0.344E+01 0.938E+02 0.554E+00 0.640E+00 0.206E+00 0.817E+01 0.206E-01 0.315E-01 0.387E-02 0.490E-04 0.267E-04 0.297E-02 0.731E+01 0.730E-02 0.972E-04 .74741E-05 0.547E+00 0.617E+00 0.000E+00 0.000E+00 0.000E+00
BIGSUB   9        0  362.22296E+00 0.147E+02 0.000E+00 0.388E+01 0.344E+01 0.968E+02 0.463E+00 0.645E+00 0.113E+00 0.823E+01 0.238E-01 0.322E-01 0.395E-02 0.453E-04 0.192E-04 0.304E-02 0.747E+01 0.857E-02 0.526E-04 .80311E-05 0.636E+00 0.619E+00 0.000E+00 0.000E+00 0.000E+00
BIGSUB  10        0  362.69770E-01 0.147E+02 0.000E+00 0.388E+01 0.345E+01 0.123E+03 0.281E+01 0.864E+00 0.881E+00 0.740E+01 0.251E-01 0.356E-01 0.440E-02 0.642E-04 0.372E-04 0.350E-02 0.562E+01 0.599E-02 0.390E-03 .61356E-04 0.110E+01 0.534E+00 0.000E+00 0.000E+00 0.000E+00
BIGSUB  11        0  362.12671E+00 0.147E+02 0.000E+00 0.388E+01 0.347E+01 0.121E+03 0.210E+01 0.582E+00 0.681E+00 0.807E+01 0.275E-01 0.248E-01 0.306E-02 0.509E-04 0.172E-04 0.239E-02 0.678E+01 0.790E-02 0.308E-03 .84448E-05 0.840E+00 0.611E+00 0.000E+00 0.000E+00 0.000E+00
BIGSUB   1        0  363.35860E+00 0.840E+01 0.000E+00 0.424E+01 0.370E+01 0.104E+03 0.342E+00 0.203E-03 0.326E+00 0.570E+01 0.129E-09 0.285E-07 0.373E-08 0.115E-07 0.473E-07 0.385E-08 0.536E+01 0.578E-02 0.753E-04 .11642E-11 0.000E+00 0.466E+00 0.000E+00 0.000E+00 0.000E+00
BIGSUB   2        0  363.32997E+00 0.840E+01 0.000E+00 0.424E+01 0.369E+01 0.116E+03 0.414E+00 0.475E-01 0.347E+00 0.542E+01 0.483E-09 0.172E-03 0.286E-04 0.270E-04 0.379E-05 0.400E-04 0.501E+01 0.837E-02 0.798E-04 .96684E-07 0.972E-08 0.442E+00 0.000E+00 0.000E+00 0.000E+00
BIGSUB   3        0  363.49752E+00 0.840E+01 0.000E+00 0.424E+01 0.367E+01 0.116E+03 0.119E+01 0.139E+00 0.103E+01 0.543E+01 0.334E-09 0.389E-03 0.694E-04 0.695E-04 0.803E-05 0.101E-03 0.422E+01 0.768E-02 0.360E-03 .92013E-06 0.375E-07 0.444E+00 0.000E+00 0.000E+00 0.000E+00
BIGSUB   4        0  363.34608E+00 0.840E+01 0.000E+00 0.423E+01 0.365E+01 0.936E+02 0.192E+00 0.100E-05 0.000E+00 0.577E+01 0.289E-10 0.373E-08 0.100E-08 0.100E-08 0.100E-08 0.200E-08 0.577E+01 0.774E-02 0.100E-11 .56689E-23 0.000E+00 0.472E+00 0.000E+00 0.000E+00 0.000E+00
BIGSUB   5        0  363.24789E+00 0.840E+01 0.000E+00 0.422E+01 0.364E+01 0.948E+02 0.159E+00 0.366E-03 0.456E-01 0.582E+01 0.234E-09 0.243E-05 0.298E-06 0.300E-07 0.414E-07 0.235E-06 0.577E+01 0.636E-02 0.221E-04 .23571E-10 0.000E+00 0.475E+00 0.000E+00 0.000E+00 0.000E+00
BIGSUB   6        0  363.21516E+00 0.840E+01 0.000E+00 0.423E+01 0.366E+01 0.101E+03 0.190E+00 0.211E-02 0.620E-01 0.567E+01 0.544E-09 0.149E-04 0.188E-05 0.725E-06 0.230E-06 0.161E-05 0.560E+01 0.706E-02 0.271E-04 .20578E-08 0.912E-09 0.463E+00 0.000E+00 0.000E+00 0.000E+00
BIGSUB   7        0  363.52122E-01 0.840E+01 0.000E+00 0.423E+01 0.364E+01 0.934E+02 0.292E-01 0.964E-03 0.249E-01 0.585E+01 0.337E-09 0.660E-07 0.895E-08 0.517E-07 0.224E-06 0.767E-08 0.582E+01 0.526E-02 0.117E-04 .58809E-11 0.000E+00 0.478E+00 0.000E+00 0.000E+00 0.000E+00
BIGSUB   8        0  363.51507E-01 0.840E+01 0.000E+00 0.423E+01 0.365E+01 0.936E+02 0.331E+00 0.941E-02 0.209E+00 0.578E+01 0.502E-09 0.288E-04 0.353E-05 0.520E-06 0.216E-05 0.253E-05 0.555E+01 0.594E-02 0.982E-04 .28502E-08 0.000E+00 0.472E+00 0.000E+00 0.000E+00 0.000E+00
BIGSUB   9        0  363.22296E+00 0.840E+01 0.000E+00 0.422E+01 0.365E+01 0.966E+02 0.265E+00 0.791E-03 0.115E+00 0.578E+01 0.445E-09 0.380E-05 0.466E-06 0.341E-07 0.156E-06 0.365E-06 0.565E+01 0.665E-02 0.540E-04 .88708E-09 0.000E+00 0.472E+00 0.000E+00 0.000E+00 0.000E+00
BIGSUB  10        0  363.69770E-01 0.840E+01 0.000E+00 0.422E+01 0.366E+01 0.123E+03 0.129E+01 0.314E-01 0.898E+00 0.527E+01 0.140E-08 0.454E-03 0.573E-04 0.365E-05 0.216E-05 0.491E-04 0.430E+01 0.455E-02 0.401E-03 .55394E-07 0.779E-08 0.431E+00 0.000E+00 0.000E+00 0.000E+00
BIGSUB  11        0  363.12671E+00 0.840E+01 0.000E+00 0.422E+01 0.369E+01 0.120E+03 0.893E+00 0.242E-02 0.695E+00 0.542E+01 0.847E-09 0.322E-04 0.442E-05 0.137E-05 0.372E-06 0.415E-05 0.469E+01 0.469E-02 0.316E-03 .16936E-08 0.284E-08 0.442E+00 0.000E+00 0.000E+00 0.000E+00
BIGSUB   1        0  364.35860E+00 0.300E+00 0.000E+00 0.572E+01 0.328E+01 0.101E+03 0.113E-04 0.481E-04 0.332E+00 0.197E+01 0.129E-09 0.462E-08 0.143E-08 0.346E-08 0.118E-07 0.230E-08 0.162E+01 0.167E-02 0.767E-04 .17695E-13 0.000E+00 0.161E+00 0.000E+00 0.000E+00 0.000E+00
BIGSUB   2        0  364.32997E+00 0.300E+00 0.000E+00 0.572E+01 0.335E+01 0.113E+03 0.000E+00 0.314E-03 0.354E+00 0.154E+01 0.483E-09 0.812E-06 0.106E-06 0.549E-06 0.201E-06 0.683E-07 0.117E+01 0.120E-02 0.816E-04 .56806E-09 0.000E+00 0.126E+00 0.000E+00 0.000E+00 0.000E+00
BIGSUB   3        0  364.49752E+00 0.300E+00 0.000E+00 0.573E+01 0.334E+01 0.113E+03 0.000E+00 0.951E-03 0.105E+01 0.236E+01 0.334E-09 0.267E-05 0.328E-06 0.289E-06 0.648E-08 0.252E-06 0.126E+01 0.196E-02 0.369E-03 .80907E-09 0.000E+00 0.193E+00 0.000E+00 0.000E+00 0.000E+00
BIGSUB   4        0  364.34608E+00 0.300E+00 0.000E+00 0.572E+01 0.317E+01 0.907E+02 0.000E+00 0.100E-05 0.000E+00 0.199E+01 0.289E-10 0.100E-08 0.100E-08 0.100E-08 0.100E-08 0.200E-08 0.198E+01 0.266E-02 0.100E-11 .20252E-22 0.000E+00 0.162E+00 0.000E+00 0.000E+00 0.000E+00
BIGSUB   5        0  364.24789E+00 0.300E+00 0.000E+00 0.571E+01 0.317E+01 0.919E+02 0.000E+00 0.108E-04 0.463E-01 0.204E+01 0.234E-09 0.760E-07 0.102E-07 0.155E-08 0.227E-08 0.912E-08 0.199E+01 0.219E-02 0.224E-04 .56740E-15 0.000E+00 0.166E+00 0.000E+00 0.000E+00 0.000E+00
BIGSUB   6        0  364.21516E+00 0.300E+00 0.000E+00 0.571E+01 0.323E+01 0.985E+02 0.172E-04 0.458E-04 0.630E-01 0.180E+01 0.544E-09 0.380E-07 0.562E-08 0.338E-08 0.105E-07 0.585E-08 0.173E+01 0.214E-02 0.275E-04 .31242E-14 0.000E+00 0.147E+00 0.000E+00 0.000E+00 0.000E+00
BIGSUB   7        0  364.52122E-01 0.300E+00 0.000E+00 0.571E+01 0.316E+01 0.905E+02 0.531E-04 0.237E-03 0.253E-01 0.203E+01 0.337E-09 0.170E-07 0.295E-08 0.135E-07 0.557E-07 0.338E-08 0.200E+01 0.181E-02 0.118E-04 .89693E-13 0.000E+00 0.166E+00 0.000E+00 0.000E+00 0.000E+00
BIGSUB   8        0  364.51507E-01 0.300E+00 0.000E+00 0.571E+01 0.317E+01 0.907E+02 0.321E-03 0.325E-02 0.212E+00 0.214E+01 0.502E-09 0.762E-05 0.933E-06 0.183E-06 0.752E-06 0.667E-06 0.191E+01 0.204E-02 0.986E-04 .14427E-09 0.000E+00 0.174E+00 0.000E+00 0.000E+00 0.000E+00
BIGSUB   9        0  364.22296E+00 0.300E+00 0.000E+00 0.571E+01 0.318E+01 0.937E+02 0.493E-05 0.347E-03 0.117E+00 0.208E+01 0.445E-09 0.400E-06 0.498E-07 0.145E-07 0.813E-07 0.374E-07 0.195E+01 0.230E-02 0.548E-04 .22268E-09 0.000E+00 0.170E+00 0.000E+00 0.000E+00 0.000E+00
BIGSUB  10        0  364.69770E-01 0.300E+00 0.000E+00 0.570E+01 0.330E+01 0.120E+03 0.000E+00 0.966E-04 0.912E+00 0.256E+01 0.140E-08 0.877E-06 0.109E-06 0.790E-08 0.121E-07 0.891E-07 0.161E+01 0.182E-02 0.408E-03 .52250E-13 0.000E+00 0.209E+00 0.000E+00 0.000E+00 0.000E+00
BIGSUB  11        0  364.12671E+00 0.300E+00 0.000E+00 0.570E+01 0.333E+01 0.117E+03 0.000E+00 0.482E-04 0.708E+00 0.224E+01 0.847E-09 0.941E-06 0.116E-06 0.344E-08 0.582E-08 0.909E-07 0.151E+01 0.151E-02 0.322E-03 .53194E-13 0.000E+00 0.183E+00 0.000E+00 0.000E+00 0.000E+00
BIGSUB   1        0  365.35860E+00 0.740E+01 0.000E+00 0.349E+01 0.305E+01 0.103E+03 0.199E-02 0.124E-04 0.336E+00 0.258E+01 0.129E-09 0.179E-08 0.109E-08 0.159E-08 0.362E-08 0.207E-08 0.223E+01 0.698E-03 0.776E-04 .26004E-15 0.000E+00 0.214E+00 0.000E+00 0.000E+00 0.000E+00
BIGSUB   2        0  365.32997E+00 0.740E+01 0.000E+00 0.349E+01 0.305E+01 0.115E+03 0.995E-03 0.198E-01 0.360E+00 0.246E+01 0.782E-03 0.637E-04 0.115E-04 0.182E-04 0.140E-05 0.171E-04 0.207E+01 0.912E-03 0.828E-04 .11882E-06 0.153E+00 0.203E+00 0.000E+00 0.000E+00 0.000E+00
BIGSUB   3        0  365.49752E+00 0.740E+01 0.000E+00 0.349E+01 0.307E+01 0.115E+03 0.337E-01 0.762E-01 0.106E+01 0.285E+01 0.272E-02 0.212E-03 0.391E-04 0.574E-04 0.383E-05 0.597E-04 0.167E+01 0.992E-03 0.375E-03 .51529E-06 0.461E+00 0.230E+00 0.000E+00 0.000E+00 0.000E+00
BIGSUB   4        0  365.34608E+00 0.740E+01 0.000E+00 0.349E+01 0.304E+01 0.924E+02 0.000E+00 0.100E-05 0.000E+00 0.241E+01 0.289E-10 0.100E-08 0.100E-08 0.100E-08 0.100E-08 0.200E-08 0.240E+01 0.101E-02 0.100E-11 .13811E-22 0.000E+00 0.200E+00 0.000E+00 0.000E+00 0.000E+00
BIGSUB   5        0  365.24789E+00 0.740E+01 0.000E+00 0.349E+01 0.299E+01 0.935E+02 0.248E-02 0.648E-04 0.469E-01 0.259E+01 0.234E-09 0.415E-08 0.138E-08 0.138E-07 0.827E-08 0.229E-08 0.254E+01 0.868E-03 0.226E-04 .12996E-12 0.000E+00 0.215E+00 0.000E+00 0.000E+00 0.000E+00
BIGSUB   6        0  365.21516E+00 0.740E+01 0.000E+00 0.349E+01 0.301E+01 0.100E+03 0.433E-02 0.483E-03 0.639E-01 0.254E+01 0.544E-09 0.149E-08 0.105E-08 0.132E-06 0.381E-07 0.203E-08 0.247E+01 0.996E-03 0.277E-04 .15978E-11 0.000E+00 0.211E+00 0.000E+00 0.000E+00 0.000E+00
BIGSUB   7        0  365.52122E-01 0.740E+01 0.000E+00 0.349E+01 0.294E+01 0.919E+02 0.507E-02 0.591E-04 0.256E-01 0.269E+01 0.337E-09 0.492E-08 0.147E-08 0.405E-08 0.144E-07 0.233E-08 0.266E+01 0.749E-03 0.118E-04 .13185E-14 0.000E+00 0.223E+00 0.000E+00 0.000E+00 0.000E+00
BIGSUB   8        0  365.51507E-01 0.740E+01 0.000E+00 0.349E+01 0.298E+01 0.923E+02 0.421E-01 0.118E-02 0.214E+00 0.269E+01 0.502E-09 0.264E-05 0.323E-06 0.668E-07 0.273E-06 0.232E-06 0.246E+01 0.814E-03 0.986E-04 .70325E-11 0.000E+00 0.223E+00 0.000E+00 0.000E+00 0.000E+00
BIGSUB   9        0  365.22296E+00 0.740E+01 0.000E+00 0.349E+01 0.301E+01 0.954E+02 0.528E-02 0.198E-03 0.118E+00 0.258E+01 0.445E-09 0.193E-06 0.245E-07 0.837E-08 0.475E-07 0.188E-07 0.245E+01 0.907E-03 0.554E-04 .53202E-10 0.000E+00 0.214E+00 0.000E+00 0.000E+00 0.000E+00
BIGSUB  10        0  365.69770E-01 0.740E+01 0.000E+00 0.349E+01 0.306E+01 0.122E+03 0.292E-01 0.906E-02 0.924E+00 0.296E+01 0.607E-04 0.145E-03 0.184E-04 0.220E-05 0.600E-06 0.158E-04 0.199E+01 0.912E-03 0.413E-03 .23526E-08 0.397E-03 0.246E+00 0.000E+00 0.000E+00 0.000E+00
BIGSUB  11        0  365.12671E+00 0.740E+01 0.000E+00 0.349E+01 0.305E+01 0.119E+03 0.175E-01 0.526E-03 0.718E+00 0.290E+01 0.847E-09 0.788E-07 0.105E-07 0.794E-06 0.999E-07 0.935E-08 0.215E+01 0.753E-03 0.325E-03 .23486E-10 0.000E+00 0.241E+00 0.000E+00 0.000E+00 0.000E+00
BIGSUB   1        0  366.35860E+00 0.399E+02 0.000E+00 0.181E+01 0.179E+01 0.106E+03 0.275E+01 0.107E+02 0.343E+00 0.273E+02 0.390E+00 0.541E+00 0.663E-01 0.214E-03 0.323E-03 0.506E-01 0.162E+02 0.294E-01 0.799E-04 .36912E-02 0.589E+02 0.140E+01 0.000E+00 0.000E+00 0.000E+00
BIGSUB   2        0  366.32997E+00 0.399E+02 0.000E+00 0.181E+01 0.176E+01 0.118E+03 0.266E+01 0.116E+02 0.369E+00 0.289E+02 0.408E+00 0.437E+00 0.543E-01 0.734E-03 0.721E-03 0.432E-01 0.170E+02 0.418E-01 0.857E-04 .32410E-02 0.856E+02 0.148E+01 0.000E+00 0.000E+00 0.000E+00
BIGSUB   3        0  366.49752E+00 0.399E+02 0.000E+00 0.181E+01 0.175E+01 0.118E+03 0.675E+01 0.126E+02 0.108E+01 0.257E+02 0.402E+00 0.391E+00 0.493E-01 0.907E-03 0.955E-03 0.404E-01 0.120E+02 0.312E-01 0.389E-03 .30959E-02 0.105E+03 0.113E+01 0.000E+00 0.000E+00 0.000E+00
BIGSUB   4        0  366.34608E+00 0.399E+02 0.000E+00 0.181E+01 0.179E+01 0.954E+02 0.146E+01 0.125E+02 0.000E+00 0.272E+02 0.372E+00 0.576E+00 0.707E-01 0.220E-03 0.371E-03 0.543E-01 0.147E+02 0.284E-01 0.100E-11 .48357E-02 0.612E+02 0.124E+01 0.000E+00 0.000E+00 0.000E+00
BIGSUB   5        0  366.24789E+00 0.399E+02 0.000E+00 0.182E+01 0.180E+01 0.966E+02 0.122E+01 0.124E+02 0.477E-01 0.273E+02 0.434E+00 0.560E+00 0.687E-01 0.244E-03 0.342E-03 0.530E-01 0.149E+02 0.273E-01 0.232E-04 .46517E-02 0.681E+02 0.125E+01 0.000E+00 0.000E+00 0.000E+00
BIGSUB   6        0  366.21516E+00 0.399E+02 0.000E+00 0.181E+01 0.179E+01 0.103E+03 0.140E+01 0.117E+02 0.651E-01 0.280E+02 0.379E+00 0.546E+00 0.671E-01 0.526E-03 0.505E-03 0.515E-01 0.163E+02 0.319E-01 0.284E-04 .41878E-02 0.583E+02 0.139E+01 0.000E+00 0.000E+00 0.000E+00
BIGSUB   7        0  366.52122E-01 0.399E+02 0.000E+00 0.181E+01 0.179E+01 0.954E+02 0.742E+00 0.124E+02 0.260E-01 0.274E+02 0.412E+00 0.568E+00 0.697E-01 0.272E-03 0.366E-03 0.537E-01 0.150E+02 0.257E-01 0.119E-04 .45987E-02 0.647E+02 0.127E+01 0.000E+00 0.000E+00 0.000E+00
BIGSUB   8        0  366.51507E-01 0.399E+02 0.000E+00 0.181E+01 0.180E+01 0.954E+02 0.203E+01 0.123E+02 0.218E+00 0.268E+02 0.351E+00 0.555E+00 0.681E-01 0.252E-03 0.466E-03 0.523E-01 0.143E+02 0.262E-01 0.998E-04 .45774E-02 0.571E+02 0.124E+01 0.000E+00 0.000E+00 0.000E+00
BIGSUB   9        0  366.22296E+00 0.399E+02 0.000E+00 0.182E+01 0.180E+01 0.985E+02 0.175E+01 0.124E+02 0.121E+00 0.271E+02 0.402E+00 0.562E+00 0.689E-01 0.235E-03 0.362E-03 0.531E-01 0.145E+02 0.271E-01 0.568E-04 .47740E-02 0.649E+02 0.123E+01 0.000E+00 0.000E+00 0.000E+00
BIGSUB  10        0  366.69770E-01 0.399E+02 0.000E+00 0.182E+01 0.180E+01 0.125E+03 0.625E+01 0.134E+02 0.942E+00 0.251E+02 0.380E+00 0.519E+00 0.639E-01 0.243E-03 0.492E-03 0.501E-01 0.107E+02 0.196E-01 0.425E-03 .62773E-02 0.684E+02 0.986E+00 0.000E+00 0.000E+00 0.000E+00
BIGSUB  11        0  366.12671E+00 0.399E+02 0.000E+00 0.182E+01 0.180E+01 0.122E+03 0.489E+01 0.115E+02 0.733E+00 0.261E+02 0.470E+00 0.494E+00 0.607E-01 0.238E-03 0.318E-03 0.469E-01 0.139E+02 0.232E-01 0.334E-03 .42610E-02 0.771E+02 0.123E+01 0.000E+00 0.000E+00 0.000E+00
