1
    SWAT Dec 23 2016    VER 2016/Rev 664                                                                 0/ 0/   0      0: 0: 0

    General Input/Output section (file.cio):                                        
    12/20/2019 06:57:11 QSWAT Workflow v1.5.2                                       
                                                                                    
         Number of years in run:    5
         Area of watershed:        1.562 km2
         Random number generator cycles: 0, use default numbers

         Initial random number seed: wet/dry day prob        748932582
         Initial random number seed: radiation              1948832765
         Initial random number seed: precipitation           857034417
         Initial random number seed: 0.5 hr rainfall          67377721
         Initial random number seed: wind speed              366304404
         Initial random number seed: irrigation             1094585182
         Initial random number seed: relative humidity      1767585417
         Initial random number seed: max temperature         608439319
         Initial random number seed: min temperature         592757081

         Precipitation data used in run:
          Multiple gages read for watershed
             Daily rainfall data used

         Temperature data used in run:
          Multiple gages read for watershed

         PET method used: Penman-Monteith

         Rainfall/Runoff/Routing Option:
          Daily rainfall data
          Runoff estimated with curve number method
          Daily stream routing
           Variable Storage routing method
           Channel dimensions remain constant
           Subbasin algae/CBOD loadings not modeled
           In-stream nutrient transformations modeled using QUAL2E equations

         Subbasin Input Summary:
          Sub Latitude  Elev(m) #HRUs Ponds Elevbnds Wetlnd
            1   -14.29   212.77     3                   
            2   -14.29   227.20     3                   
            3   -14.29   206.70     2                   
            4   -14.29   207.12     2                   
            5   -14.29   286.92     1                   
            6   -14.29   177.83     1                   
            7   -14.29   191.23     1                   
            8   -14.29   281.18     1                   
            9   -14.29   284.52     2                   
           10   -14.29   207.23     4                   
           11   -14.29   140.82     8                   
           12   -14.29   148.70     4                   
           13   -14.29   301.48     1                   
           14   -14.29   265.48     2                   
           15   -14.29   310.94     1                   
           16   -14.29   110.36     4                   
           17   -14.29    87.27     5                   
           18   -14.29   121.07     1                   
           19   -14.29   293.20     3                   
           20   -14.29   163.39     2                   
           21   -14.29    90.73     3                   
           22   -14.29   308.35     3                   
           23   -14.29   283.43     1                   
           24   -14.29   345.76     2                   
           25   -14.29   291.98     1                   
           26   -14.29   257.00     2                   
           27   -14.29   320.41     3                   
           28   -14.29   317.59     2                   
           29   -14.29   298.84     1                   
           30   -14.29   162.77     1                   
           31   -14.29    48.06    10                   
           32   -14.29   263.40     1                   
           33   -14.29    88.77    10                   
           34   -14.29    51.68    10                   
           35   -14.29   210.79     2                   
           36   -14.29   333.86     2                   
           37   -14.29    37.66    10                   
           38   -14.29   346.72     3                   
           39   -14.29   338.55     4                   
           40   -14.29   359.12     2                   
           41   -14.29   218.11     1                   
           42   -14.29   429.99     2                   
           43   -14.29   197.26     1                   
           44   -14.29   109.65     9                   
           45   -14.29   147.87     3                   
           46   -14.29   471.26     4                   
           47   -14.29   126.67     1                   
           48   -14.29   135.80     2                   
           49   -14.29   143.57     2                   
           50   -14.29   493.35     5                   
           51   -14.29   101.36    11                   
           52   -14.29   427.09     4                   
           53   -14.29   507.15     2                   
           54   -14.29   531.44     5                   
           55   -14.29   162.41     2                   
           56   -14.29    14.65     5                   
           57   -14.29   121.15     4                   
           58   -14.29   246.70     2                   
           59   -14.29    63.35    11                   
           60   -14.29    16.78     9                   
           61   -14.29   257.45     2                   
           62   -14.29   158.76     1                   
           63   -14.29   102.90     8                   
           64   -14.29   175.78     2                   
           65   -14.29   210.71     1                   
           66   -14.29   239.29     2                   
           67   -14.29    49.37     5                   
           68   -14.29   124.05     2                   
           69   -14.29    37.32    17                   
           70   -14.29   392.73     2                   
           71   -14.29   162.41     3                   
           72   -14.29    65.50    12                   
           73   -14.29   365.32     4                   
           74   -14.29   149.45     3                   
           75   -14.29   322.60     4                   
           76   -14.29   348.11     7                   
           77   -14.29    13.88     7                   
           78   -14.29    11.06     6                   
           79   -14.29   285.42     4                   
           80   -14.29   306.33     4                   
           81   -14.29   248.80     5                   
           82   -14.29   225.62     3                   
           83   -14.29   220.54     3                   
           84   -14.29   218.33     3                   
           85   -14.29   172.13     2                   
           86   -14.29   193.03     3                   
           87   -14.29   209.70     3                   
           88   -14.29   161.48     1                   
           89   -14.29   197.88     3                   
           90   -14.29   222.05     3                   
           91   -14.29   206.02     3                   
           92   -14.29   181.91     6                   
           93   -14.29   144.25     3                   
           94   -14.29   115.82     3                   
           95   -14.29   102.67     2                   
           96   -14.29    94.94     4                   
           97   -14.29    80.13    14                   
           98   -14.29    26.24     4                   
           99   -14.29    34.77     9                   
          100   -14.29    53.70    10                   
          101   -14.29    46.61     9                   
          102   -14.29    29.77    13                   
          103   -14.29    22.42    11                   
          104   -14.29     9.34     9                   
          105   -14.29     7.29     9                   
          106   -14.29    38.57    11                   
          107   -14.29    46.26    10                   

         HRU Input Summary Table 1:
          Sub   HRU   Area(ha) Slope SlpLgth(m) Ovrlnd_N CondII_CN TimeConc(hr) ESCO EPCO
            1      1       0.01 0.001     121.95    0.100     70.00        1.981 0.95 1.00
            1      2       0.01 0.021      91.46    0.100     70.00        0.669 0.95 1.00
            1      3       4.48 0.485       9.15    0.100     70.00        0.089 0.95 1.00
            2      4       0.00 0.000     121.95    0.100     70.00        3.952 0.95 1.00
            2      5       0.00 0.026      91.46    0.100     70.00        0.627 0.95 1.00
            2      6       3.81 0.655       9.15    0.100     70.00        0.085 0.95 1.00
            3      7       0.00 0.018     121.95    0.100     70.00        0.832 0.95 1.00
            3      8       1.72 0.516       9.15    0.100     70.00        0.081 0.95 1.00
            4      9       0.00 0.017     121.95    0.100     70.00        0.847 0.95 1.00
            4     10       1.19 0.584       9.15    0.100     70.00        0.075 0.95 1.00
            5     11       1.24 0.797       9.15    0.100     70.00        0.071 0.95 1.00
            6     12       2.10 0.603       9.15    0.100     70.00        0.074 0.95 1.00
            7     13       0.94 0.686       9.15    0.100     70.00        0.069 0.95 1.00
            8     14       0.91 0.819       9.15    0.100     70.00        0.071 0.95 1.00
            9     15       0.00 0.000     121.95    0.100     70.00        3.952 0.95 1.00
            9     16       1.80 0.785       9.15    0.100     70.00        0.072 0.95 1.00
           10     17       0.00 0.030      91.46    0.100     72.00        0.601 0.95 1.00
           10     18       0.00 0.099      60.98    0.100     72.00        0.329 0.95 1.00
           10     19       0.00 0.022      91.46    0.100     70.00        0.659 0.95 1.00
           10     20       2.05 0.612       9.15    0.100     70.00        0.078 0.95 1.00
           11     21       0.00 0.000     121.95    0.100     72.00        3.952 0.95 1.00
           11     22       0.00 0.018     121.95    0.100     72.00        0.832 0.95 1.00
           11     23       0.02 0.457       9.15    0.100     72.00        0.067 0.95 1.00
           11     24       0.00 0.000     121.95    0.100     70.00        3.952 0.95 1.00
           11     25       0.00 0.027      91.46    0.100     70.00        0.620 0.95 1.00
           11     26       1.85 0.782       9.15    0.100     70.00        0.073 0.95 1.00
           11     27       0.00 0.012     121.95    0.140     91.00        1.150 0.95 1.00
           11     28       0.01 0.222      15.24    0.140     91.00        0.138 0.95 1.00
           12     29       0.00 0.000     121.95    0.100     70.00        3.952 0.95 1.00
           12     30       1.09 0.744       9.15    0.100     70.00        0.072 0.95 1.00
           12     31       0.00 0.029      91.46    0.140     91.00        0.743 0.95 1.00
           12     32       0.07 1.000       9.15    0.140     91.00        0.066 0.95 1.00
           13     33       1.76 0.940       9.15    0.100     70.00        0.068 0.95 1.00
           14     34       0.00 0.019     121.95    0.100     70.00        0.819 0.95 1.00
           14     35       1.03 0.884       9.15    0.100     70.00        0.072 0.95 1.00
           15     36       0.95 0.836       9.15    0.100     70.00        0.070 0.95 1.00
           16     37       1.06 0.879       9.15    0.100     70.00        0.068 0.95 1.00
           16     38       0.00 0.000     121.95    0.100     77.00        3.952 0.95 1.00
           16     39       0.11 0.668       9.15    0.100     77.00        0.061 0.95 1.00
           16     40       0.01 0.110      60.98    0.100     77.00        0.319 0.95 1.00
           17     41       0.26 0.874       9.15    0.100     70.00        0.058 0.95 1.00
           17     42       0.01 0.001     121.95    0.140     91.00        2.424 0.95 1.00
           17     43       0.01 0.020     121.95    0.140     91.00        0.987 0.95 1.00
           17     44       0.84 0.962       9.15    0.140     91.00        0.075 0.95 1.00
           17     45       0.01 0.320       9.15    0.100     77.00        0.074 0.95 1.00
           18     46       1.21 0.788       9.15    0.100     70.00        0.069 0.95 1.00
           19     47       0.00 0.000     121.95    0.100     70.00        3.952 0.95 1.00
           19     48       0.00 0.016     121.95    0.100     70.00        0.862 0.95 1.00
           19     49       2.05 0.919       9.15    0.100     70.00        0.068 0.95 1.00
           20     50       0.00 0.000     121.95    0.100     70.00        3.952 0.95 1.00
           20     51       0.94 0.697       9.15    0.100     70.00        0.073 0.95 1.00
           21     52       0.91 0.882       9.15    0.100     70.00        0.065 0.95 1.00
           21     53       0.00 0.008     121.95    0.100     77.00        1.061 0.95 1.00
           21     54       0.10 0.684       9.15    0.100     77.00        0.061 0.95 1.00
           22     55       0.00 0.006     121.95    0.100     70.00        1.157 0.95 1.00
           22     56       0.00 0.028      91.46    0.100     70.00        0.613 0.95 1.00
           22     57       2.83 1.000       9.15    0.100     70.00        0.069 0.95 1.00
           23     58       0.95 1.000       9.15    0.100     70.00        0.066 0.95 1.00
           24     59       0.00 0.021      91.46    0.100     70.00        0.669 0.95 1.00
           24     60       1.58 1.000       9.15    0.100     70.00        0.064 0.95 1.00
           25     61       2.04 0.837       9.15    0.100     70.00        0.074 0.95 1.00
           26     62       0.00 0.012     121.95    0.100     70.00        0.940 0.95 1.00
           26     63       1.10 0.909       9.15    0.100     70.00        0.068 0.95 1.00
           27     64       0.00 0.008     121.95    0.100     70.00        1.061 0.95 1.00
           27     65       1.61 0.886       9.15    0.100     70.00        0.067 0.95 1.00
           27     66       0.21 1.000       9.15    0.100     77.00        0.055 0.95 1.00
           28     67       0.00 0.000     121.95    0.100     70.00        3.952 0.95 1.00
           28     68       0.98 1.000       9.15    0.100     70.00        0.065 0.95 1.00
           29     69       1.23 1.000       9.15    0.100     70.00        0.065 0.95 1.00
           30     70       2.46 0.706       9.15    0.100     70.00        0.079 0.95 1.00
           31     71       0.01 0.001     121.95    0.100     77.00        1.981 0.95 1.00
           31     72       0.02 0.022      91.46    0.100     77.00        0.660 0.95 1.00
           31     73       0.35 0.428       9.15    0.100     77.00        0.072 0.95 1.00
           31     74       0.98 0.958       9.15    0.100     70.00        0.062 0.95 1.00
           31     75       0.01 0.001     121.95    0.100     70.00        1.981 0.95 1.00
           31     76       0.03 0.020     121.95    0.100     70.00        0.807 0.95 1.00
           31     77       0.19 0.107      60.98    0.100     70.00        0.324 0.95 1.00
           31     78       0.01 0.004     121.95    0.100     70.00        1.307 0.95 1.00
           31     79       0.03 0.022      91.46    0.100     70.00        0.660 0.95 1.00
           31     80       0.10 0.105      60.98    0.100     70.00        0.325 0.95 1.00
           32     81       2.56 1.000       9.15    0.100     70.00        0.066 0.95 1.00
           33     82       0.01 0.002     121.95    0.100     70.00        1.609 0.95 1.00
           33     83       0.01 0.020     121.95    0.100     70.00        0.807 0.95 1.00
           33     84       0.04 0.089      60.98    0.100     70.00        0.341 0.95 1.00
           33     85       0.00 0.006     121.95    0.100     77.00        1.157 0.95 1.00
           33     86       0.00 0.024      91.46    0.100     77.00        0.642 0.95 1.00
           33     87       0.06 0.238      15.24    0.100     77.00        0.112 0.95 1.00
           33     88       0.83 0.762       9.15    0.100     70.00        0.074 0.95 1.00
           33     89       0.00 0.000     121.95    0.100     70.00        3.952 0.95 1.00
           33     90       0.00 0.023      91.46    0.100     70.00        0.651 0.95 1.00
           33     91       0.06 0.109      60.98    0.100     70.00        0.322 0.95 1.00
           34     92       0.04 0.001     121.95    0.100     70.00        1.981 0.95 1.00
           34     93       0.02 0.020      91.46    0.100     70.00        0.679 0.95 1.00
           34     94       0.05 0.087      60.98    0.100     70.00        0.343 0.95 1.00
           34     95       0.02 0.001     121.95    0.100     77.00        1.981 0.95 1.00
           34     96       0.01 0.022      91.46    0.100     77.00        0.660 0.95 1.00
           34     97       0.34 0.691       9.15    0.100     77.00        0.064 0.95 1.00
           34     98       0.61 0.869       9.15    0.100     70.00        0.064 0.95 1.00
           34     99       0.01 0.000     121.95    0.100     70.00        3.952 0.95 1.00
           34    100       0.01 0.023      91.46    0.100     70.00        0.651 0.95 1.00
           34    101       0.05 0.113      60.98    0.100     70.00        0.318 0.95 1.00
           35    102       0.00 0.000     121.95    0.100     70.00        3.952 0.95 1.00
           35    103       2.18 0.959       9.15    0.100     70.00        0.068 0.95 1.00
           36    104       1.02 1.000       9.15    0.100     70.00        0.063 0.95 1.00
           36    105       0.00 1.000       9.15    0.100     77.00        0.053 0.95 1.00
           37    106       0.01 0.002     121.95    0.100     77.00        1.609 0.95 1.00
           37    107       0.02 0.020      91.46    0.100     77.00        0.679 0.95 1.00
           37    108       0.33 0.478       9.15    0.100     77.00        0.071 0.95 1.00
           37    109       0.61 0.875       9.15    0.100     70.00        0.063 0.95 1.00
           37    110       0.02 0.004     121.95    0.100     70.00        1.307 0.95 1.00
           37    111       0.02 0.021      91.46    0.100     70.00        0.669 0.95 1.00
           37    112       0.06 0.069      60.98    0.100     70.00        0.368 0.95 1.00
           37    113       0.01 0.002     121.95    0.100     70.00        1.609 0.95 1.00
           37    114       0.02 0.019     121.95    0.100     70.00        0.819 0.95 1.00
           37    115       0.03 0.071      60.98    0.100     70.00        0.364 0.95 1.00
           38    116       0.12 0.000     121.95    0.100     70.00        3.954 0.95 1.00
           38    117       0.01 0.021      91.46    0.100     70.00        0.669 0.95 1.00
           38    118       1.07 0.603       9.15    0.100     70.00        0.073 0.95 1.00
           39    119       0.00 0.000     121.95    0.100     70.00        3.952 0.95 1.00
           39    120       0.56 1.000       9.15    0.100     70.00        0.056 0.95 1.00
           39    121       0.30 0.888       9.15    0.140     91.00        0.069 0.95 1.00
           39    122       1.21 1.000       9.15    0.100     77.00        0.060 0.95 1.00
           40    123       0.93 1.000       9.15    0.100     70.00        0.059 0.95 1.00
           40    124       0.69 1.000       9.15    0.100     77.00        0.057 0.95 1.00
           41    125       1.01 0.733       9.15    0.100     70.00        0.072 0.95 1.00
           42    126       0.02 1.000       9.15    0.100     70.00        0.053 0.95 1.00
           42    127       1.09 1.000       9.15    0.100     77.00        0.062 0.95 1.00
           43    128       1.79 0.865       9.15    0.100     70.00        0.066 0.95 1.00
           44    129       0.00 0.028      91.46    0.100     77.00        0.613 0.95 1.00
           44    130       0.03 0.274       9.15    0.100     77.00        0.078 0.95 1.00
           44    131       0.00 0.023      91.46    0.100     70.00        0.651 0.95 1.00
           44    132       1.72 0.714       9.15    0.100     70.00        0.077 0.95 1.00
           44    133       0.00 0.000     121.95    0.100     70.00        3.952 0.95 1.00
           44    134       0.02 0.065      60.98    0.100     70.00        0.374 0.95 1.00
           44    135       0.00 0.000     121.95    0.100     70.00        3.952 0.95 1.00
           44    136       0.00 0.021      91.46    0.100     70.00        0.669 0.95 1.00
           44    137       0.00 0.083      60.98    0.100     70.00        0.347 0.95 1.00
           45    138       0.01 0.000     121.95    0.100     70.00        3.952 0.95 1.00
           45    139       0.01 0.018     121.95    0.100     70.00        0.832 0.95 1.00
           45    140       4.66 0.702       9.15    0.100     70.00        0.079 0.95 1.00
           46    141       0.00 0.000     121.95    0.100     70.00        3.952 0.95 1.00
           46    142       0.51 1.000       9.15    0.100     70.00        0.057 0.95 1.00
           46    143       0.00 0.000     121.95    0.100     77.00        3.952 0.95 1.00
           46    144       1.54 1.000       9.15    0.100     77.00        0.064 0.95 1.00
           47    145       1.73 0.644       9.15    0.100     70.00        0.074 0.95 1.00
           48    146       0.00 0.002     121.95    0.100     70.00        1.609 0.95 1.00
           48    147       2.40 0.666       9.15    0.100     70.00        0.074 0.95 1.00
           49    148       0.01 0.000     121.95    0.100     70.00        3.952 0.95 1.00
           49    149       2.41 0.706       9.15    0.100     70.00        0.075 0.95 1.00
           50    150       0.00 0.000     121.95    0.100     70.00        3.952 0.95 1.00
           50    151       0.00 0.011     121.95    0.100     70.00        0.965 0.95 1.00
           50    152       0.52 1.000       9.15    0.100     70.00        0.057 0.95 1.00
           50    153       0.01 0.083      60.98    0.140     91.00        0.425 0.95 1.00
           50    154       2.25 1.000       9.15    0.100     77.00        0.067 0.95 1.00
           51    155       0.01 0.005     121.95    0.100     77.00        1.222 0.95 1.00
           51    156       0.03 0.019     121.95    0.100     77.00        0.819 0.95 1.00
           51    157       0.40 0.340       9.15    0.100     77.00        0.077 0.95 1.00
           51    158       0.01 0.002     121.95    0.100     70.00        1.609 0.95 1.00
           51    159       0.01 0.021      91.46    0.100     70.00        0.669 0.95 1.00
           51    160       4.40 0.633       9.15    0.100     70.00        0.091 0.95 1.00
           51    161       0.01 0.003     121.95    0.100     70.00        1.425 0.95 1.00
           51    162       0.02 0.025      91.46    0.100     70.00        0.635 0.95 1.00
           51    163       0.12 0.089      60.98    0.100     70.00        0.341 0.95 1.00
           51    164       0.01 0.020      91.46    0.100     70.00        0.679 0.95 1.00
           51    165       0.02 0.059      60.98    0.100     70.00        0.385 0.95 1.00
           52    166       0.00 0.000     121.95    0.100     70.00        3.952 0.95 1.00
           52    167       2.68 1.000       9.15    0.100     70.00        0.065 0.95 1.00
           52    168       0.00 0.000     121.95    0.100     77.00        3.952 0.95 1.00
           52    169       1.60 1.000       9.15    0.100     77.00        0.061 0.95 1.00
           53    170       0.00 0.000     121.95    0.100     77.00        3.952 0.95 1.00
           53    171       1.80 1.000       9.15    0.100     77.00        0.065 0.95 1.00
           54    172       0.00 0.000     121.95    0.100     70.00        3.952 0.95 1.00
           54    173       0.96 0.959       9.15    0.100     70.00        0.058 0.95 1.00
           54    174       0.00 0.000     121.95    0.100     77.00        3.952 0.95 1.00
           54    175       0.00 0.014     121.95    0.100     77.00        0.897 0.95 1.00
           54    176       2.20 1.000       9.15    0.100     77.00        0.063 0.95 1.00
           55    177       0.00 0.000     121.95    0.100     70.00        3.952 0.95 1.00
           55    178       0.85 0.680       9.15    0.100     70.00        0.072 0.95 1.00
           56    179       0.00 0.000     121.95    0.100     77.00        3.953 0.95 1.00
           56    180       0.01 0.084      60.98    0.100     77.00        0.351 0.95 1.00
           56    181       0.01 0.001     121.95    0.100     77.00        1.989 0.95 1.00
           56    182       0.00 0.020     121.95    0.100     77.00        0.807 0.95 1.00
           56    183       0.01 0.044      91.46    0.100     77.00        0.543 0.95 1.00
           57    184       0.04 0.627       9.15    0.100     77.00        0.061 0.95 1.00
           57    185       0.01 0.000     121.95    0.100     70.00        3.952 0.95 1.00
           57    186       0.00 0.020      91.46    0.100     70.00        0.678 0.95 1.00
           57    187       4.57 0.672       9.15    0.100     70.00        0.086 0.95 1.00
           58    188       0.00 0.027      91.46    0.100     70.00        0.620 0.95 1.00
           58    189       0.45 1.000       9.15    0.100     70.00        0.062 0.95 1.00
           59    190       0.01 0.002     121.95    0.100     77.00        1.609 0.95 1.00
           59    191       0.00 0.021      91.46    0.100     77.00        0.669 0.95 1.00
           59    192       0.13 0.204      15.24    0.100     77.00        0.119 0.95 1.00
           59    193       0.00 0.000     121.95    0.100     70.00        3.952 0.95 1.00
           59    194       0.00 0.017     121.95    0.100     70.00        0.847 0.95 1.00
           59    195       1.27 0.618       9.15    0.100     70.00        0.084 0.95 1.00
           59    196       0.00 0.028      91.46    0.100     70.00        0.613 0.95 1.00
           59    197       0.04 0.175      18.29    0.100     70.00        0.136 0.95 1.00
           59    198       0.00 0.002     121.95    0.100     70.00        1.609 0.95 1.00
           59    199       0.00 0.023      91.46    0.100     70.00        0.651 0.95 1.00
           59    200       0.05 0.223      15.24    0.100     70.00        0.114 0.95 1.00
           60    201       0.03 0.000     121.95    0.100     77.00        3.953 0.95 1.00
           60    202       0.01 0.020      91.46    0.100     77.00        0.679 0.95 1.00
           60    203       0.12 0.359       9.15    0.100     77.00        0.076 0.95 1.00
           60    204       0.04 0.001     121.95    0.100     77.00        1.982 0.95 1.00
           60    205       0.05 0.021      91.46    0.100     77.00        0.670 0.95 1.00
           60    206       0.15 0.115      60.98    0.100     77.00        0.320 0.95 1.00
           60    207       0.02 0.001     121.95    0.100     77.00        1.981 0.95 1.00
           60    208       0.01 0.023      91.46    0.100     77.00        0.651 0.95 1.00
           60    209       0.07 0.278       9.15    0.100     77.00        0.080 0.95 1.00
           61    210       0.00 0.000     121.95    0.100     70.00        3.952 0.95 1.00
           61    211       0.21 0.837       9.15    0.100     70.00        0.061 0.95 1.00
           62    212       0.68 0.698       9.15    0.100     70.00        0.071 0.95 1.00
           63    213       0.00 0.000     121.95    0.100     70.00        3.952 0.95 1.00
           63    214       0.00 0.016     121.95    0.100     70.00        0.862 0.95 1.00
           63    215       1.59 0.841       9.15    0.100     70.00        0.073 0.95 1.00
           63    216       0.00 0.000     121.95    0.100     77.00        3.952 0.95 1.00
           63    217       0.00 0.019     121.95    0.100     77.00        0.819 0.95 1.00
           63    218       0.06 0.633       9.15    0.100     77.00        0.061 0.95 1.00
           63    219       0.00 0.000     121.95    0.100     77.00        3.952 0.95 1.00
           63    220       0.03 0.175      18.29    0.100     77.00        0.135 0.95 1.00
           64    221       0.00 0.003     121.95    0.100     70.00        1.425 0.95 1.00
           64    222       0.36 0.671       9.15    0.100     70.00        0.070 0.95 1.00
           65    223       0.42 0.681       9.15    0.100     70.00        0.073 0.95 1.00
           66    224       0.00 0.000     121.95    0.100     70.00        3.952 0.95 1.00
           66    225       0.08 0.750       9.15    0.100     70.00        0.062 0.95 1.00
           67    226       0.00 0.017     121.95    0.100     72.00        0.847 0.95 1.00
           67    227       0.02 0.507       9.15    0.100     72.00        0.066 0.95 1.00
           67    228       0.01 0.000     121.95    0.140     91.00        4.836 0.95 1.00
           67    229       0.01 0.022      91.46    0.140     91.00        0.807 0.95 1.00
           67    230       0.08 1.000       9.15    0.140     91.00        0.068 0.95 1.00
           68    231       0.00 0.019     121.95    0.100     70.00        0.819 0.95 1.00
           68    232       0.45 0.699       9.15    0.100     70.00        0.067 0.95 1.00
           69    233       0.00 0.002     121.95    0.100     70.00        1.609 0.95 1.00
           69    234       0.01 0.024      91.46    0.100     70.00        0.643 0.95 1.00
           69    235       0.08 0.122      24.39    0.100     70.00        0.181 0.95 1.00
           69    236       0.00 0.014     121.95    0.100     70.00        0.897 0.95 1.00
           69    237       0.03 0.123      24.39    0.100     70.00        0.179 0.95 1.00
           69    238       0.06 0.471       9.15    0.100     72.00        0.068 0.95 1.00
           69    239       0.00 0.000     121.95    0.100     70.00        3.952 0.95 1.00
           69    240       0.00 0.018     121.95    0.100     70.00        0.832 0.95 1.00
           69    241       0.10 0.710       9.15    0.100     70.00        0.062 0.95 1.00
           69    242       0.05 0.222      15.24    0.100     77.00        0.114 0.95 1.00
           69    243       0.21 0.638       9.15    0.100     77.00        0.066 0.95 1.00
           69    244       0.02 0.003     121.95    0.140     91.00        1.744 0.95 1.00
           69    245       0.03 0.022      91.46    0.140     91.00        0.808 0.95 1.00
           69    246       0.34 0.268       9.15    0.140     91.00        0.105 0.95 1.00
           69    247       0.00 0.004     121.95    0.140     94.00        1.599 0.95 1.00
           69    248       0.01 0.025      91.46    0.140     94.00        0.777 0.95 1.00
           69    249       0.09 0.334       9.15    0.140     94.00        0.093 0.95 1.00
           70    250       0.07 1.000       9.15    0.100     70.00        0.055 0.95 1.00
           70    251       0.17 1.000       9.15    0.100     77.00        0.057 0.95 1.00
           71    252       0.01 0.000     121.95    0.100     70.00        3.952 0.95 1.00
           71    253       0.00 0.019     121.95    0.100     70.00        0.819 0.95 1.00
           71    254       0.73 0.684       9.15    0.100     70.00        0.067 0.95 1.00
           72    255       0.01 0.000     121.95    0.100     77.00        3.952 0.95 1.00
           72    256       0.00 0.020     121.95    0.100     77.00        0.806 0.95 1.00
           72    257       0.20 0.421       9.15    0.100     77.00        0.072 0.95 1.00
           72    258       0.00 0.000     121.95    0.100     70.00        3.952 0.95 1.00
           72    259       0.00 0.019     121.95    0.100     70.00        0.819 0.95 1.00
           72    260       1.74 0.692       9.15    0.100     70.00        0.084 0.95 1.00
           72    261       0.00 0.000     121.95    0.100     70.00        3.952 0.95 1.00
           72    262       0.00 0.023      91.46    0.100     70.00        0.651 0.95 1.00
           72    263       0.05 0.245      15.24    0.100     70.00        0.110 0.95 1.00
           72    264       0.01 0.000     121.95    0.100     70.00        3.952 0.95 1.00
           72    265       0.00 0.025      91.46    0.100     70.00        0.635 0.95 1.00
           72    266       0.07 0.275       9.15    0.100     70.00        0.079 0.95 1.00
           73    267       0.00 0.000     121.95    0.100     70.00        3.952 0.95 1.00
           73    268       0.00 0.021      91.46    0.100     70.00        0.669 0.95 1.00
           73    269       1.52 1.000       9.15    0.100     70.00        0.064 0.95 1.00
           73    270       0.39 1.000       9.15    0.100     77.00        0.056 0.95 1.00
           74    271       0.02 0.000     121.95    0.100     70.00        3.952 0.95 1.00
           74    272       0.00 0.026      91.46    0.100     70.00        0.627 0.95 1.00
           74    273       1.72 0.644       9.15    0.100     70.00        0.076 0.95 1.00
           75    274       0.01 0.000     121.95    0.100     70.00        3.952 0.95 1.00
           75    275       0.00 0.023      91.46    0.100     70.00        0.651 0.95 1.00
           75    276       1.45 1.000       9.15    0.100     70.00        0.060 0.95 1.00
           75    277       0.45 1.000       9.15    0.100     77.00        0.055 0.95 1.00
           76    278       0.00 0.000     121.95    0.100     70.00        3.952 0.95 1.00
           76    279       0.00 0.022      91.46    0.100     70.00        0.659 0.95 1.00
           76    280       0.66 1.000       9.15    0.100     70.00        0.058 0.95 1.00
           76    281       0.00 0.003     121.95    0.140     91.00        1.743 0.95 1.00
           76    282       0.00 0.025      91.46    0.140     91.00        0.776 0.95 1.00
           76    283       0.04 0.436       9.15    0.140     91.00        0.083 0.95 1.00
           76    284       0.82 1.000       9.15    0.100     77.00        0.058 0.95 1.00
           77    285       0.02 0.003     121.95    0.100     77.00        1.426 0.95 1.00
           77    286       0.03 0.022      91.46    0.100     77.00        0.661 0.95 1.00
           77    287       0.12 0.093      60.98    0.100     77.00        0.342 0.95 1.00
           77    288       0.02 0.001     121.95    0.100     77.00        1.982 0.95 1.00
           77    289       0.01 0.020     121.95    0.100     77.00        0.807 0.95 1.00
           77    290       0.09 0.179      18.29    0.100     77.00        0.139 0.95 1.00
           77    291       0.05 0.196      18.29    0.100     77.00        0.134 0.95 1.00
           78    292       0.00 0.027      91.46    0.100     77.00        0.620 0.95 1.00
           78    293       0.02 0.053      60.98    0.100     77.00        0.400 0.95 1.00
           78    294       0.01 0.001     121.95    0.100     77.00        1.982 0.95 1.00
           78    295       0.01 0.024      91.46    0.100     77.00        0.643 0.95 1.00
           78    296       0.07 0.185      18.29    0.100     77.00        0.140 0.95 1.00
           78    297       0.00 0.078      60.98    0.100     77.00        0.354 0.95 1.00
           79    298       0.00 0.000     121.95    0.100     70.00        3.952 0.95 1.00
           79    299       0.22 1.000       9.15    0.100     70.00        0.058 0.95 1.00
           79    300       0.00 0.303       9.15    0.140     91.00        0.092 0.95 1.00
           79    301       0.00 1.000       9.15    0.100     77.00        0.053 0.95 1.00
           80    302       0.01 0.001     121.95    0.100     70.00        1.981 0.95 1.00
           80    303       0.01 0.021      91.46    0.100     70.00        0.669 0.95 1.00
           80    304       0.95 1.000       9.15    0.100     70.00        0.061 0.95 1.00
           80    305       0.91 1.000       9.15    0.100     77.00        0.061 0.95 1.00
           81    306       0.01 0.000     121.95    0.100     70.00        3.952 0.95 1.00
           81    307       0.00 0.020     121.95    0.100     70.00        0.806 0.95 1.00
           81    308       1.79 0.898       9.15    0.100     70.00        0.068 0.95 1.00
           81    309       0.00 0.907       9.15    0.140     91.00        0.066 0.95 1.00
           81    310       0.05 1.000       9.15    0.100     77.00        0.053 0.95 1.00
           82    311       0.00 0.000     121.95    0.100     70.00        3.952 0.95 1.00
           82    312       0.38 1.000       9.15    0.100     70.00        0.059 0.95 1.00
           82    313       0.01 0.877       9.15    0.140     91.00        0.067 0.95 1.00
           83    314       0.00 0.001     121.95    0.100     70.00        1.981 0.95 1.00
           83    315       0.00 0.026      91.46    0.100     70.00        0.627 0.95 1.00
           83    316       0.86 0.902       9.15    0.100     70.00        0.065 0.95 1.00
           84    317       0.01 0.002     121.95    0.100     70.00        1.609 0.95 1.00
           84    318       0.00 0.019     121.95    0.100     70.00        0.819 0.95 1.00
           84    319       1.46 0.885       9.15    0.100     70.00        0.067 0.95 1.00
           85    320       0.00 0.000     121.95    0.100     70.00        3.952 0.95 1.00
           85    321       0.01 0.336       9.15    0.100     70.00        0.075 0.95 1.00
           86    322       0.01 0.000     121.95    0.100     70.00        3.952 0.95 1.00
           86    323       0.00 0.019     121.95    0.100     70.00        0.819 0.95 1.00
           86    324       0.48 0.769       9.15    0.100     70.00        0.065 0.95 1.00
           87    325       0.02 0.000     121.95    0.100     70.00        3.952 0.95 1.00
           87    326       0.01 0.022      91.46    0.100     70.00        0.659 0.95 1.00
           87    327       1.67 0.866       9.15    0.100     70.00        0.073 0.95 1.00
           88    328       0.04 0.437       9.15    0.100     70.00        0.072 0.95 1.00
           89    329       0.01 0.001     121.95    0.100     70.00        1.981 0.95 1.00
           89    330       0.00 0.024      91.46    0.100     70.00        0.642 0.95 1.00
           89    331       1.87 0.756       9.15    0.100     70.00        0.076 0.95 1.00
           90    332       0.01 0.001     121.95    0.100     70.00        1.981 0.95 1.00
           90    333       0.00 0.016     121.95    0.100     70.00        0.862 0.95 1.00
           90    334       1.31 0.788       9.15    0.100     70.00        0.074 0.95 1.00
           91    335       0.01 0.002     121.95    0.100     70.00        1.609 0.95 1.00
           91    336       0.00 0.028      91.46    0.100     70.00        0.613 0.95 1.00
           91    337       0.88 0.731       9.15    0.100     70.00        0.073 0.95 1.00
           92    338       0.00 0.005     121.95    0.100     72.00        1.222 0.95 1.00
           92    339       0.00 0.018     121.95    0.100     72.00        0.832 0.95 1.00
           92    340       0.03 0.147      24.39    0.100     72.00        0.169 0.95 1.00
           92    341       0.02 0.001     121.95    0.100     70.00        1.981 0.95 1.00
           92    342       0.02 0.022      91.46    0.100     70.00        0.660 0.95 1.00
           92    343       1.63 0.743       9.15    0.100     70.00        0.073 0.95 1.00
           93    344       0.03 0.000     121.95    0.100     70.00        3.952 0.95 1.00
           93    345       0.00 0.017     121.95    0.100     70.00        0.847 0.95 1.00
           93    346       1.94 0.768       9.15    0.100     70.00        0.070 0.95 1.00
           94    347       0.01 0.002     121.95    0.100     70.00        1.609 0.95 1.00
           94    348       0.00 0.021      91.46    0.100     70.00        0.669 0.95 1.00
           94    349       0.75 0.615       9.15    0.100     70.00        0.074 0.95 1.00
           95    350       0.00 0.000     121.95    0.100     70.00        3.952 0.95 1.00
           95    351       0.05 0.679       9.15    0.100     70.00        0.062 0.95 1.00
           96    352       0.01 0.601       9.15    0.100     72.00        0.062 0.95 1.00
           96    353       0.03 0.001     121.95    0.100     70.00        1.981 0.95 1.00
           96    354       0.01 0.022      91.46    0.100     70.00        0.659 0.95 1.00
           96    355       2.65 0.900       9.15    0.100     70.00        0.072 0.95 1.00
           97    356       0.01 0.772       9.15    0.100     72.00        0.057 0.95 1.00
           97    357       0.04 0.000     121.95    0.100     70.00        3.952 0.95 1.00
           97    358       0.01 0.024      91.46    0.100     70.00        0.643 0.95 1.00
           97    359       2.33 0.849       9.15    0.100     70.00        0.074 0.95 1.00
           97    360       0.02 0.000     121.95    0.100     77.00        3.952 0.95 1.00
           97    361       0.00 0.020     121.95    0.100     77.00        0.806 0.95 1.00
           97    362       0.20 0.650       9.15    0.100     77.00        0.062 0.95 1.00
           97    363       0.00 0.004     121.95    0.140     91.00        1.599 0.95 1.00
           97    364       0.00 0.019     121.95    0.140     91.00        1.002 0.95 1.00
           97    365       0.04 0.161      18.29    0.140     91.00        0.170 0.95 1.00
           97    366       0.00 0.449       9.15    0.140     94.00        0.082 0.95 1.00
           97    367       0.00 0.020      91.46    0.100     77.00        0.678 0.95 1.00
           97    368       0.02 0.115      60.98    0.100     77.00        0.315 0.95 1.00
           97    369       0.01 0.141      24.39    0.100     77.00        0.171 0.95 1.00
           98    370       0.02 0.420       9.15    0.100     77.00        0.072 0.95 1.00
           98    371       0.00 0.000     121.95    0.100     77.00        3.952 0.95 1.00
           98    372       0.00 0.345       9.15    0.100     77.00        0.074 0.95 1.00
           98    373       0.01 0.069      60.98    0.100     77.00        0.368 0.95 1.00
           99    374       0.00 0.000     121.95    0.100     77.00        3.952 0.95 1.00
           99    375       0.00 0.026      91.46    0.100     77.00        0.627 0.95 1.00
           99    376       0.04 0.152      24.39    0.100     77.00        0.169 0.95 1.00
           99    377       0.01 0.001     121.95    0.100     77.00        1.981 0.95 1.00
           99    378       0.00 0.021      91.46    0.100     77.00        0.669 0.95 1.00
           99    379       0.13 0.537       9.15    0.100     77.00        0.068 0.95 1.00
           99    380       0.05 0.974       9.15    0.100     70.00        0.055 0.95 1.00
           99    381       0.00 0.023      91.46    0.100     70.00        0.651 0.95 1.00
           99    382       0.00 0.317       9.15    0.100     70.00        0.075 0.95 1.00
          100    383       0.35 0.916       9.15    0.100     70.00        0.060 0.95 1.00
          100    384       0.02 0.000     121.95    0.100     77.00        3.952 0.95 1.00
          100    385       0.00 0.016     121.95    0.100     77.00        0.862 0.95 1.00
          100    386       0.25 0.543       9.15    0.100     77.00        0.068 0.95 1.00
          100    387       0.00 0.000     121.95    0.100     77.00        3.952 0.95 1.00
          100    388       0.00 0.030      91.46    0.100     77.00        0.601 0.95 1.00
          100    389       0.13 0.164      18.29    0.100     77.00        0.140 0.95 1.00
          100    390       0.00 0.004     121.95    0.100     77.00        1.307 0.95 1.00
          100    391       0.00 0.027      91.46    0.100     77.00        0.620 0.95 1.00
          100    392       0.02 0.159      24.39    0.100     77.00        0.165 0.95 1.00
          101    393       0.01 0.000     121.95    0.100     70.00        3.952 0.95 1.00
          101    394       0.00 0.015     121.95    0.100     70.00        0.879 0.95 1.00
          101    395       0.30 0.898       9.15    0.100     70.00        0.062 0.95 1.00
          101    396       0.02 0.000     121.95    0.100     77.00        3.952 0.95 1.00
          101    397       0.00 0.030      91.46    0.100     77.00        0.601 0.95 1.00
          101    398       0.05 0.422       9.15    0.100     77.00        0.070 0.95 1.00
          101    399       0.00 0.201      15.24    0.100     77.00        0.116 0.95 1.00
          101    400       0.00 0.020      91.46    0.100     77.00        0.678 0.95 1.00
          101    401       0.01 0.131      24.39    0.100     77.00        0.175 0.95 1.00
          102    402       0.00 0.000     121.95    0.100     70.00        3.952 0.95 1.00
          102    403       0.00 0.022      91.46    0.100     70.00        0.659 0.95 1.00
          102    404       0.29 0.818       9.15    0.100     70.00        0.061 0.95 1.00
          102    405       0.02 0.001     121.95    0.100     77.00        1.981 0.95 1.00
          102    406       0.01 0.022      91.46    0.100     77.00        0.660 0.95 1.00
          102    407       0.21 0.325       9.15    0.100     77.00        0.078 0.95 1.00
          102    408       0.02 0.665       9.15    0.100     77.00        0.060 0.95 1.00
          102    409       0.00 0.006     121.95    0.100     77.00        1.157 0.95 1.00
          102    410       0.02 0.022      91.46    0.100     77.00        0.660 0.95 1.00
          102    411       0.08 0.089      60.98    0.100     77.00        0.342 0.95 1.00
          102    412       0.00 0.003     121.95    0.100     77.00        1.425 0.95 1.00
          102    413       0.02 0.023      91.46    0.100     77.00        0.651 0.95 1.00
          102    414       0.12 0.081      60.98    0.100     77.00        0.352 0.95 1.00
          103    415       0.02 0.815       9.15    0.100     70.00        0.056 0.95 1.00
          103    416       0.05 0.002     121.95    0.100     77.00        1.610 0.95 1.00
          103    417       0.05 0.021      91.46    0.100     77.00        0.670 0.95 1.00
          103    418       1.13 0.582       9.15    0.100     77.00        0.080 0.95 1.00
          103    419       0.01 0.020     121.95    0.140     94.00        0.987 0.95 1.00
          103    420       0.01 0.075      60.98    0.140     94.00        0.438 0.95 1.00
          103    421       0.04 0.002     121.95    0.140     94.00        1.970 0.95 1.00
          103    422       0.11 0.022      91.46    0.140     94.00        0.809 0.95 1.00
          103    423       0.45 0.131      24.39    0.140     94.00        0.222 0.95 1.00
          103    424       0.00 0.000     121.95    0.140     94.00        4.836 0.95 1.00
          103    425       0.02 0.140      24.39    0.140     94.00        0.210 0.95 1.00
          104    426       0.00 0.000     121.95    0.140     94.00        4.836 0.95 1.00
          104    427       0.01 0.018     121.95    0.140     94.00        1.019 0.95 1.00
          104    428       0.12 0.085      60.98    0.140     94.00        0.429 0.95 1.00
          104    429       0.04 0.000     121.95    0.100     77.00        3.954 0.95 1.00
          104    430       0.02 0.022      91.46    0.100     77.00        0.661 0.95 1.00
          104    431       0.14 0.151      24.39    0.100     77.00        0.175 0.95 1.00
          104    432       0.00 0.004     121.95    0.100     77.00        1.307 0.95 1.00
          104    433       0.02 0.021      91.46    0.100     77.00        0.670 0.95 1.00
          104    434       0.06 0.079      60.98    0.100     77.00        0.356 0.95 1.00
          105    435       0.01 0.004     121.95    0.100     77.00        1.308 0.95 1.00
          105    436       0.05 0.020     121.95    0.100     77.00        0.811 0.95 1.00
          105    437       0.10 0.094      60.98    0.100     77.00        0.342 0.95 1.00
          105    438       0.03 0.003     121.95    0.100     77.00        1.427 0.95 1.00
          105    439       0.03 0.020      91.46    0.100     77.00        0.681 0.95 1.00
          105    440       0.16 0.133      24.39    0.100     77.00        0.186 0.95 1.00
          105    441       0.02 0.002     121.95    0.100     77.00        1.610 0.95 1.00
          105    442       0.02 0.019     121.95    0.100     77.00        0.820 0.95 1.00
          105    443       0.08 0.165      18.29    0.100     77.00        0.143 0.95 1.00
          106    444       0.03 0.001     121.95    0.100     77.00        1.981 0.95 1.00
          106    445       0.03 0.020      91.46    0.100     77.00        0.679 0.95 1.00
          106    446       0.62 0.391       9.15    0.100     77.00        0.076 0.95 1.00
          106    447       0.00 0.028      91.46    0.100     70.00        0.613 0.95 1.00
          106    448       1.27 0.774       9.15    0.100     70.00        0.069 0.95 1.00
          106    449       0.06 0.002     121.95    0.100     70.00        1.610 0.95 1.00
          106    450       0.07 0.021      91.46    0.100     70.00        0.669 0.95 1.00
          106    451       0.16 0.114      60.98    0.100     70.00        0.318 0.95 1.00
          106    452       0.01 0.001     121.95    0.100     70.00        1.981 0.95 1.00
          106    453       0.02 0.021      91.46    0.100     70.00        0.669 0.95 1.00
          106    454       0.14 0.132      24.39    0.100     70.00        0.176 0.95 1.00
          107    455       0.02 0.000     121.95    0.100     70.00        3.952 0.95 1.00
          107    456       0.03 0.019     121.95    0.100     70.00        0.820 0.95 1.00
          107    457       0.05 0.080      60.98    0.100     70.00        0.352 0.95 1.00
          107    458       0.01 0.001     121.95    0.100     77.00        1.981 0.95 1.00
          107    459       0.02 0.023      91.46    0.100     77.00        0.651 0.95 1.00
          107    460       0.18 0.429       9.15    0.100     77.00        0.072 0.95 1.00
          107    461       0.70 0.767       9.15    0.100     70.00        0.069 0.95 1.00
          107    462       0.00 0.006     121.95    0.100     70.00        1.157 0.95 1.00
          107    463       0.00 0.020      91.46    0.100     70.00        0.679 0.95 1.00
          107    464       0.01 0.069      60.98    0.100     77.00        0.367 0.95 1.00

         HRU CN Input Summary Table:
          Sub   HRU   Area(ha)  LULC      Soil    CN1    CN2    CN3  Wilting Point (mm H2O)  Field Capacity (mm H2O)  Saturation (mm H2O)
            1      1       0.01  FRSE  FAGASA     51.2   70.0   85.7                   132.2                     97.2                365.5
            1      2       0.01  FRSE  FAGASA     51.2   70.0   85.7                   132.2                     97.2                365.5
            1      3       4.48  FRSE  FAGASA     51.2   70.0   85.7                   132.2                     97.2                365.5
            2      4       0.00  FRSE  FAGASA     51.2   70.0   85.7                   132.2                     97.2                365.5
            2      5       0.00  FRSE  FAGASA     51.2   70.0   85.7                   132.2                     97.2                365.5
            2      6       3.81  FRSE  FAGASA     51.2   70.0   85.7                   132.2                     97.2                365.5
            3      7       0.00  FRSE  FAGASA     51.2   70.0   85.7                   132.2                     97.2                365.5
            3      8       1.72  FRSE  FAGASA     51.2   70.0   85.7                   132.2                     97.2                365.5
            4      9       0.00  FRSE  FAGASA     51.2   70.0   85.7                   132.2                     97.2                365.5
            4     10       1.19  FRSE  FAGASA     51.2   70.0   85.7                   132.2                     97.2                365.5
            5     11       1.24  FRSE  FAGASA     51.2   70.0   85.7                   132.2                     97.2                365.5
            6     12       2.10  FRSE  FAGASA     51.2   70.0   85.7                   132.2                     97.2                365.5
            7     13       0.94  FRSE  FAGASA     51.2   70.0   85.7                   132.2                     97.2                365.5
            8     14       0.91  FRSE  FAGASA     51.2   70.0   85.7                   132.2                     97.2                365.5
            9     15       0.00  FRSE  FAGASA     51.2   70.0   85.7                   132.2                     97.2                365.5
            9     16       1.80  FRSE  FAGASA     51.2   70.0   85.7                   132.2                     97.2                365.5
           10     17       0.00  SWCH  FAGASA     53.4   72.0   86.9                   132.2                     97.2                365.5
           10     18       0.00  SWCH  FAGASA     53.4   72.0   86.9                   132.2                     97.2                365.5
           10     19       0.00  FRSE  FAGASA     51.2   70.0   85.7                   132.2                     97.2                365.5
           10     20       2.05  FRSE  FAGASA     51.2   70.0   85.7                   132.2                     97.2                365.5
           11     21       0.00  SWCH  FAGASA     53.4   72.0   86.9                   132.2                     97.2                365.5
           11     22       0.00  SWCH  FAGASA     53.4   72.0   86.9                   132.2                     97.2                365.5
           11     23       0.02  SWCH  FAGASA     53.4   72.0   86.9                   132.2                     97.2                365.5
           11     24       0.00  FRSE  FAGASA     51.2   70.0   85.7                   132.2                     97.2                365.5
           11     25       0.00  FRSE  FAGASA     51.2   70.0   85.7                   132.2                     97.2                365.5
           11     26       1.85  FRSE  FAGASA     51.2   70.0   85.7                   132.2                     97.2                365.5
           11     27       0.00  BARR  FAGASA     79.8   91.0   96.7                   132.2                     97.2                365.5
           11     28       0.01  BARR  FAGASA     79.8   91.0   96.7                   132.2                     97.2                365.5
           12     29       0.00  FRSE  FAGASA     51.2   70.0   85.7                   132.2                     97.2                365.5
           12     30       1.09  FRSE  FAGASA     51.2   70.0   85.7                   132.2                     97.2                365.5
           12     31       0.00  BARR  FAGASA     79.8   91.0   96.7                   132.2                     97.2                365.5
           12     32       0.07  BARR  FAGASA     79.8   91.0   96.7                   132.2                     97.2                365.5
           13     33       1.76  FRSE  FAGASA     51.2   70.0   85.7                   132.2                     97.2                365.5
           14     34       0.00  FRSE  FAGASA     51.2   70.0   85.7                   132.2                     97.2                365.5
           14     35       1.03  FRSE  FAGASA     51.2   70.0   85.7                   132.2                     97.2                365.5
           15     36       0.95  FRSE  FAGASA     51.2   70.0   85.7                   132.2                     97.2                365.5
           16     37       1.06  FRSE  FAGASA     51.2   70.0   85.7                   132.2                     97.2                365.5
           16     38       0.00  FRSE  URBAN LA   59.3   77.0   89.9                     0.8                      1.5                 75.7
           16     39       0.11  FRSE  URBAN LA   59.3   77.0   89.9                     0.8                      1.5                 75.7
           16     40       0.01  FRSE  URBAN LA   59.3   77.0   89.9                     0.8                      1.5                 75.7
           17     41       0.26  FRSE  FAGASA     51.2   70.0   85.7                   132.2                     97.2                365.5
           17     42       0.01  BARR  FAGASA     79.8   91.0   96.7                   132.2                     97.2                365.5
           17     43       0.01  BARR  FAGASA     79.8   91.0   96.7                   132.2                     97.2                365.5
           17     44       0.84  BARR  FAGASA     79.8   91.0   96.7                   132.2                     97.2                365.5
           17     45       0.01  FRSD  FAGASA     59.3   77.0   89.9                   132.2                     97.2                365.5
           18     46       1.21  FRSE  FAGASA     51.2   70.0   85.7                   132.2                     97.2                365.5
           19     47       0.00  FRSE  FAGASA     51.2   70.0   85.7                   132.2                     97.2                365.5
           19     48       0.00  FRSE  FAGASA     51.2   70.0   85.7                   132.2                     97.2                365.5
           19     49       2.05  FRSE  FAGASA     51.2   70.0   85.7                   132.2                     97.2                365.5
           20     50       0.00  FRSE  FAGASA     51.2   70.0   85.7                   132.2                     97.2                365.5
           20     51       0.94  FRSE  FAGASA     51.2   70.0   85.7                   132.2                     97.2                365.5
           21     52       0.91  FRSE  FAGASA     51.2   70.0   85.7                   132.2                     97.2                365.5
           21     53       0.00  FRSE  URBAN LA   59.3   77.0   89.9                     0.8                      1.5                 75.7
           21     54       0.10  FRSE  URBAN LA   59.3   77.0   89.9                     0.8                      1.5                 75.7
           22     55       0.00  FRSE  FAGASA     51.2   70.0   85.7                   132.2                     97.2                365.5
           22     56       0.00  FRSE  FAGASA     51.2   70.0   85.7                   132.2                     97.2                365.5
           22     57       2.83  FRSE  FAGASA     51.2   70.0   85.7                   132.2                     97.2                365.5
           23     58       0.95  FRSE  FAGASA     51.2   70.0   85.7                   132.2                     97.2                365.5
           24     59       0.00  FRSE  FAGASA     51.2   70.0   85.7                   132.2                     97.2                365.5
           24     60       1.58  FRSE  FAGASA     51.2   70.0   85.7                   132.2                     97.2                365.5
           25     61       2.04  FRSE  FAGASA     51.2   70.0   85.7                   132.2                     97.2                365.5
           26     62       0.00  FRSE  FAGASA     51.2   70.0   85.7                   132.2                     97.2                365.5
           26     63       1.10  FRSE  FAGASA     51.2   70.0   85.7                   132.2                     97.2                365.5
           27     64       0.00  FRSE  FAGASA     51.2   70.0   85.7                   132.2                     97.2                365.5
           27     65       1.61  FRSE  FAGASA     51.2   70.0   85.7                   132.2                     97.2                365.5
           27     66       0.21  FRSD  FAGASA     59.3   77.0   89.9                   132.2                     97.2                365.5
           28     67       0.00  FRSE  FAGASA     51.2   70.0   85.7                   132.2                     97.2                365.5
           28     68       0.98  FRSE  FAGASA     51.2   70.0   85.7                   132.2                     97.2                365.5
           29     69       1.23  FRSE  FAGASA     51.2   70.0   85.7                   132.2                     97.2                365.5
           30     70       2.46  FRSE  FAGASA     51.2   70.0   85.7                   132.2                     97.2                365.5
           31     71       0.01  FRSE  URBAN LA   59.3   77.0   89.9                     0.8                      1.5                 75.7
           31     72       0.02  FRSE  URBAN LA   59.3   77.0   89.9                     0.8                      1.5                 75.7
           31     73       0.35  FRSE  URBAN LA   59.3   77.0   89.9                     0.8                      1.5                 75.7
           31     74       0.98  FRSE  FAGASA     51.2   70.0   85.7                   132.2                     97.2                365.5
           31     75       0.01  FRSE  URBAN LA   51.2   70.0   85.7                     0.8                      1.5                 75.7
           31     76       0.03  FRSE  URBAN LA   51.2   70.0   85.7                     0.8                      1.5                 75.7
           31     77       0.19  FRSE  URBAN LA   51.2   70.0   85.7                     0.8                      1.5                 75.7
           31     78       0.01  FRSE  URBAN LA   51.2   70.0   85.7                     0.8                      1.5                 75.7
           31     79       0.03  FRSE  URBAN LA   51.2   70.0   85.7                     0.8                      1.5                 75.7
           31     80       0.10  FRSE  URBAN LA   51.2   70.0   85.7                     0.8                      1.5                 75.7
           32     81       2.56  FRSE  FAGASA     51.2   70.0   85.7                   132.2                     97.2                365.5
           33     82       0.01  FRSE  URBAN LA   51.2   70.0   85.7                     0.8                      1.5                 75.7
           33     83       0.01  FRSE  URBAN LA   51.2   70.0   85.7                     0.8                      1.5                 75.7
           33     84       0.04  FRSE  URBAN LA   51.2   70.0   85.7                     0.8                      1.5                 75.7
           33     85       0.00  FRSE  URBAN LA   59.3   77.0   89.9                     0.8                      1.5                 75.7
           33     86       0.00  FRSE  URBAN LA   59.3   77.0   89.9                     0.8                      1.5                 75.7
           33     87       0.06  FRSE  URBAN LA   59.3   77.0   89.9                     0.8                      1.5                 75.7
           33     88       0.83  FRSE  FAGASA     51.2   70.0   85.7                   132.2                     97.2                365.5
           33     89       0.00  FRSE  URBAN LA   51.2   70.0   85.7                     0.8                      1.5                 75.7
           33     90       0.00  FRSE  URBAN LA   51.2   70.0   85.7                     0.8                      1.5                 75.7
           33     91       0.06  FRSE  URBAN LA   51.2   70.0   85.7                     0.8                      1.5                 75.7
           34     92       0.04  FRSE  URBAN LA   51.2   70.0   85.7                     0.8                      1.5                 75.7
           34     93       0.02  FRSE  URBAN LA   51.2   70.0   85.7                     0.8                      1.5                 75.7
           34     94       0.05  FRSE  URBAN LA   51.2   70.0   85.7                     0.8                      1.5                 75.7
           34     95       0.02  FRSE  URBAN LA   59.3   77.0   89.9                     0.8                      1.5                 75.7
           34     96       0.01  FRSE  URBAN LA   59.3   77.0   89.9                     0.8                      1.5                 75.7
           34     97       0.34  FRSE  URBAN LA   59.3   77.0   89.9                     0.8                      1.5                 75.7
           34     98       0.61  FRSE  FAGASA     51.2   70.0   85.7                   132.2                     97.2                365.5
           34     99       0.01  FRSE  URBAN LA   51.2   70.0   85.7                     0.8                      1.5                 75.7
           34    100       0.01  FRSE  URBAN LA   51.2   70.0   85.7                     0.8                      1.5                 75.7
           34    101       0.05  FRSE  URBAN LA   51.2   70.0   85.7                     0.8                      1.5                 75.7
           35    102       0.00  FRSE  FAGASA     51.2   70.0   85.7                   132.2                     97.2                365.5
           35    103       2.18  FRSE  FAGASA     51.2   70.0   85.7                   132.2                     97.2                365.5
           36    104       1.02  FRSE  FAGASA     51.2   70.0   85.7                   132.2                     97.2                365.5
           36    105       0.00  FRSD  FAGASA     59.3   77.0   89.9                   132.2                     97.2                365.5
           37    106       0.01  FRSE  URBAN LA   59.3   77.0   89.9                     0.8                      1.5                 75.7
           37    107       0.02  FRSE  URBAN LA   59.3   77.0   89.9                     0.8                      1.5                 75.7
           37    108       0.33  FRSE  URBAN LA   59.3   77.0   89.9                     0.8                      1.5                 75.7
           37    109       0.61  FRSE  FAGASA     51.2   70.0   85.7                   132.2                     97.2                365.5
           37    110       0.02  FRSE  URBAN LA   51.2   70.0   85.7                     0.8                      1.5                 75.7
           37    111       0.02  FRSE  URBAN LA   51.2   70.0   85.7                     0.8                      1.5                 75.7
           37    112       0.06  FRSE  URBAN LA   51.2   70.0   85.7                     0.8                      1.5                 75.7
           37    113       0.01  FRSE  URBAN LA   51.2   70.0   85.7                     0.8                      1.5                 75.7
           37    114       0.02  FRSE  URBAN LA   51.2   70.0   85.7                     0.8                      1.5                 75.7
           37    115       0.03  FRSE  URBAN LA   51.2   70.0   85.7                     0.8                      1.5                 75.7
           38    116       0.12  FRSE  FAGASA     51.2   70.0   85.7                   132.2                     97.2                365.5
           38    117       0.01  FRSE  FAGASA     51.2   70.0   85.7                   132.2                     97.2                365.5
           38    118       1.07  FRSE  FAGASA     51.2   70.0   85.7                   132.2                     97.2                365.5
           39    119       0.00  FRSE  FAGASA     51.2   70.0   85.7                   132.2                     97.2                365.5
           39    120       0.56  FRSE  FAGASA     51.2   70.0   85.7                   132.2                     97.2                365.5
           39    121       0.30  BARR  FAGASA     79.8   91.0   96.7                   132.2                     97.2                365.5
           39    122       1.21  FRSD  FAGASA     59.3   77.0   89.9                   132.2                     97.2                365.5
           40    123       0.93  FRSE  FAGASA     51.2   70.0   85.7                   132.2                     97.2                365.5
           40    124       0.69  FRSD  FAGASA     59.3   77.0   89.9                   132.2                     97.2                365.5
           41    125       1.01  FRSE  FAGASA     51.2   70.0   85.7                   132.2                     97.2                365.5
           42    126       0.02  FRSE  FAGASA     51.2   70.0   85.7                   132.2                     97.2                365.5
           42    127       1.09  FRSD  FAGASA     59.3   77.0   89.9                   132.2                     97.2                365.5
           43    128       1.79  FRSE  FAGASA     51.2   70.0   85.7                   132.2                     97.2                365.5
           44    129       0.00  FRSE  URBAN LA   59.3   77.0   89.9                     0.8                      1.5                 75.7
           44    130       0.03  FRSE  URBAN LA   59.3   77.0   89.9                     0.8                      1.5                 75.7
           44    131       0.00  FRSE  FAGASA     51.2   70.0   85.7                   132.2                     97.2                365.5
           44    132       1.72  FRSE  FAGASA     51.2   70.0   85.7                   132.2                     97.2                365.5
           44    133       0.00  FRSE  URBAN LA   51.2   70.0   85.7                     0.8                      1.5                 75.7
           44    134       0.02  FRSE  URBAN LA   51.2   70.0   85.7                     0.8                      1.5                 75.7
           44    135       0.00  FRSE  URBAN LA   51.2   70.0   85.7                     0.8                      1.5                 75.7
           44    136       0.00  FRSE  URBAN LA   51.2   70.0   85.7                     0.8                      1.5                 75.7
           44    137       0.00  FRSE  URBAN LA   51.2   70.0   85.7                     0.8                      1.5                 75.7
           45    138       0.01  FRSE  FAGASA     51.2   70.0   85.7                   132.2                     97.2                365.5
           45    139       0.01  FRSE  FAGASA     51.2   70.0   85.7                   132.2                     97.2                365.5
           45    140       4.66  FRSE  FAGASA     51.2   70.0   85.7                   132.2                     97.2                365.5
           46    141       0.00  FRSE  FAGASA     51.2   70.0   85.7                   132.2                     97.2                365.5
           46    142       0.51  FRSE  FAGASA     51.2   70.0   85.7                   132.2                     97.2                365.5
           46    143       0.00  FRSD  FAGASA     59.3   77.0   89.9                   132.2                     97.2                365.5
           46    144       1.54  FRSD  FAGASA     59.3   77.0   89.9                   132.2                     97.2                365.5
           47    145       1.73  FRSE  FAGASA     51.2   70.0   85.7                   132.2                     97.2                365.5
           48    146       0.00  FRSE  FAGASA     51.2   70.0   85.7                   132.2                     97.2                365.5
           48    147       2.40  FRSE  FAGASA     51.2   70.0   85.7                   132.2                     97.2                365.5
           49    148       0.01  FRSE  FAGASA     51.2   70.0   85.7                   132.2                     97.2                365.5
           49    149       2.41  FRSE  FAGASA     51.2   70.0   85.7                   132.2                     97.2                365.5
           50    150       0.00  FRSE  FAGASA     51.2   70.0   85.7                   132.2                     97.2                365.5
           50    151       0.00  FRSE  FAGASA     51.2   70.0   85.7                   132.2                     97.2                365.5
           50    152       0.52  FRSE  FAGASA     51.2   70.0   85.7                   132.2                     97.2                365.5
           50    153       0.01  BARR  FAGASA     79.8   91.0   96.7                   132.2                     97.2                365.5
           50    154       2.25  FRSD  FAGASA     59.3   77.0   89.9                   132.2                     97.2                365.5
           51    155       0.01  FRSE  URBAN LA   59.3   77.0   89.9                     0.8                      1.5                 75.7
           51    156       0.03  FRSE  URBAN LA   59.3   77.0   89.9                     0.8                      1.5                 75.7
           51    157       0.40  FRSE  URBAN LA   59.3   77.0   89.9                     0.8                      1.5                 75.7
           51    158       0.01  FRSE  FAGASA     51.2   70.0   85.7                   132.2                     97.2                365.5
           51    159       0.01  FRSE  FAGASA     51.2   70.0   85.7                   132.2                     97.2                365.5
           51    160       4.40  FRSE  FAGASA     51.2   70.0   85.7                   132.2                     97.2                365.5
           51    161       0.01  FRSE  URBAN LA   51.2   70.0   85.7                     0.8                      1.5                 75.7
           51    162       0.02  FRSE  URBAN LA   51.2   70.0   85.7                     0.8                      1.5                 75.7
           51    163       0.12  FRSE  URBAN LA   51.2   70.0   85.7                     0.8                      1.5                 75.7
           51    164       0.01  FRSE  URBAN LA   51.2   70.0   85.7                     0.8                      1.5                 75.7
           51    165       0.02  FRSE  URBAN LA   51.2   70.0   85.7                     0.8                      1.5                 75.7
           52    166       0.00  FRSE  FAGASA     51.2   70.0   85.7                   132.2                     97.2                365.5
           52    167       2.68  FRSE  FAGASA     51.2   70.0   85.7                   132.2                     97.2                365.5
           52    168       0.00  FRSD  FAGASA     59.3   77.0   89.9                   132.2                     97.2                365.5
           52    169       1.60  FRSD  FAGASA     59.3   77.0   89.9                   132.2                     97.2                365.5
           53    170       0.00  FRSD  FAGASA     59.3   77.0   89.9                   132.2                     97.2                365.5
           53    171       1.80  FRSD  FAGASA     59.3   77.0   89.9                   132.2                     97.2                365.5
           54    172       0.00  FRSE  FAGASA     51.2   70.0   85.7                   132.2                     97.2                365.5
           54    173       0.96  FRSE  FAGASA     51.2   70.0   85.7                   132.2                     97.2                365.5
           54    174       0.00  FRSD  FAGASA     59.3   77.0   89.9                   132.2                     97.2                365.5
           54    175       0.00  FRSD  FAGASA     59.3   77.0   89.9                   132.2                     97.2                365.5
           54    176       2.20  FRSD  FAGASA     59.3   77.0   89.9                   132.2                     97.2                365.5
           55    177       0.00  FRSE  FAGASA     51.2   70.0   85.7                   132.2                     97.2                365.5
           55    178       0.85  FRSE  FAGASA     51.2   70.0   85.7                   132.2                     97.2                365.5
           56    179       0.00  FRSE  URBAN LA   59.3   77.0   89.9                     0.8                      1.5                 75.7
           56    180       0.01  FRSE  URBAN LA   59.3   77.0   89.9                     0.8                      1.5                 75.7
           56    181       0.01  FRSE  URBAN LA   59.3   77.0   89.9                     0.8                      1.5                 75.7
           56    182       0.00  FRSE  URBAN LA   59.3   77.0   89.9                     0.8                      1.5                 75.7
           56    183       0.01  FRSE  URBAN LA   59.3   77.0   89.9                     0.8                      1.5                 75.7
           57    184       0.04  FRSE  URBAN LA   59.3   77.0   89.9                     0.8                      1.5                 75.7
           57    185       0.01  FRSE  FAGASA     51.2   70.0   85.7                   132.2                     97.2                365.5
           57    186       0.00  FRSE  FAGASA     51.2   70.0   85.7                   132.2                     97.2                365.5
           57    187       4.57  FRSE  FAGASA     51.2   70.0   85.7                   132.2                     97.2                365.5
           58    188       0.00  FRSE  FAGASA     51.2   70.0   85.7                   132.2                     97.2                365.5
           58    189       0.45  FRSE  FAGASA     51.2   70.0   85.7                   132.2                     97.2                365.5
           59    190       0.01  FRSE  URBAN LA   59.3   77.0   89.9                     0.8                      1.5                 75.7
           59    191       0.00  FRSE  URBAN LA   59.3   77.0   89.9                     0.8                      1.5                 75.7
           59    192       0.13  FRSE  URBAN LA   59.3   77.0   89.9                     0.8                      1.5                 75.7
           59    193       0.00  FRSE  FAGASA     51.2   70.0   85.7                   132.2                     97.2                365.5
           59    194       0.00  FRSE  FAGASA     51.2   70.0   85.7                   132.2                     97.2                365.5
           59    195       1.27  FRSE  FAGASA     51.2   70.0   85.7                   132.2                     97.2                365.5
           59    196       0.00  FRSE  URBAN LA   51.2   70.0   85.7                     0.8                      1.5                 75.7
           59    197       0.04  FRSE  URBAN LA   51.2   70.0   85.7                     0.8                      1.5                 75.7
           59    198       0.00  FRSE  URBAN LA   51.2   70.0   85.7                     0.8                      1.5                 75.7
           59    199       0.00  FRSE  URBAN LA   51.2   70.0   85.7                     0.8                      1.5                 75.7
           59    200       0.05  FRSE  URBAN LA   51.2   70.0   85.7                     0.8                      1.5                 75.7
           60    201       0.03  FRSE  URBAN LA   59.3   77.0   89.9                     0.8                      1.5                 75.7
           60    202       0.01  FRSE  URBAN LA   59.3   77.0   89.9                     0.8                      1.5                 75.7
           60    203       0.12  FRSE  URBAN LA   59.3   77.0   89.9                     0.8                      1.5                 75.7
           60    204       0.04  FRSE  URBAN LA   59.3   77.0   89.9                     0.8                      1.5                 75.7
           60    205       0.05  FRSE  URBAN LA   59.3   77.0   89.9                     0.8                      1.5                 75.7
           60    206       0.15  FRSE  URBAN LA   59.3   77.0   89.9                     0.8                      1.5                 75.7
           60    207       0.02  FRSE  URBAN LA   59.3   77.0   89.9                     0.8                      1.5                 75.7
           60    208       0.01  FRSE  URBAN LA   59.3   77.0   89.9                     0.8                      1.5                 75.7
           60    209       0.07  FRSE  URBAN LA   59.3   77.0   89.9                     0.8                      1.5                 75.7
           61    210       0.00  FRSE  FAGASA     51.2   70.0   85.7                   132.2                     97.2                365.5
           61    211       0.21  FRSE  FAGASA     51.2   70.0   85.7                   132.2                     97.2                365.5
           62    212       0.68  FRSE  FAGASA     51.2   70.0   85.7                   132.2                     97.2                365.5
[...]
          101    400       0.00        31.000         0.048   1000.000   0.020      750.000  0.050    0.000     0.000
          101    401       0.01        31.000         0.048   1000.000   0.020      750.000  0.050    0.000     0.000
          102    402       0.00        31.000         0.048   1000.000   0.020      750.000  0.050    0.000     0.000
          102    403       0.00        31.000         0.048   1000.000   0.020      750.000  0.050    0.000     0.000
          102    404       0.29        31.000         0.048   1000.000   0.020      750.000  0.050    0.000     0.000
          102    405       0.02        31.000         0.048   1000.000   0.020      750.000  0.050    0.000     0.000
          102    406       0.01        31.000         0.048   1000.000   0.020      750.000  0.050    0.000     0.000
          102    407       0.21        31.000         0.048   1000.000   0.020      750.000  0.050    0.000     0.000
          102    408       0.02        31.000         0.048   1000.000   0.020      750.000  0.050    0.000     0.000
          102    409       0.00        31.000         0.048   1000.000   0.020      750.000  0.050    0.000     0.000
          102    410       0.02        31.000         0.048   1000.000   0.020      750.000  0.050    0.000     0.000
          102    411       0.08        31.000         0.048   1000.000   0.020      750.000  0.050    0.000     0.000
          102    412       0.00        31.000         0.048   1000.000   0.020      750.000  0.050    0.000     0.000
          102    413       0.02        31.000         0.048   1000.000   0.020      750.000  0.050    0.000     0.000
          102    414       0.12        31.000         0.048   1000.000   0.020      750.000  0.050    0.000     0.000
          103    415       0.02        31.000         0.048   1000.000   0.020      750.000  0.050    0.000     0.000
          103    416       0.05        31.000         0.048   1000.000   0.020      750.000  0.050    0.000     0.000
          103    417       0.05        31.000         0.048   1000.000   0.020      750.000  0.050    0.000     0.000
          103    418       1.13        31.000         0.048   1000.000   0.020      750.000  0.050    0.000     0.000
          103    419       0.01        31.000         0.048   1000.000   0.020      750.000  0.050    0.000     0.000
          103    420       0.01        31.000         0.048   1000.000   0.020      750.000  0.050    0.000     0.000
          103    421       0.04        31.000         0.048   1000.000   0.020      750.000  0.050    0.000     0.000
          103    422       0.11        31.000         0.048   1000.000   0.020      750.000  0.050    0.000     0.000
          103    423       0.45        31.000         0.048   1000.000   0.020      750.000  0.050    0.000     0.000
          103    424       0.00        31.000         0.048   1000.000   0.020      750.000  0.050    0.000     0.000
          103    425       0.02        31.000         0.048   1000.000   0.020      750.000  0.050    0.000     0.000
          104    426       0.00        31.000         0.048   1000.000   0.020      750.000  0.050    0.000     0.000
          104    427       0.01        31.000         0.048   1000.000   0.020      750.000  0.050    0.000     0.000
          104    428       0.12        31.000         0.048   1000.000   0.020      750.000  0.050    0.000     0.000
          104    429       0.04        31.000         0.048   1000.000   0.020      750.000  0.050    0.000     0.000
          104    430       0.02        31.000         0.048   1000.000   0.020      750.000  0.050    0.000     0.000
          104    431       0.14        31.000         0.048   1000.000   0.020      750.000  0.050    0.000     0.000
          104    432       0.00        31.000         0.048   1000.000   0.020      750.000  0.050    0.000     0.000
          104    433       0.02        31.000         0.048   1000.000   0.020      750.000  0.050    0.000     0.000
          104    434       0.06        31.000         0.048   1000.000   0.020      750.000  0.050    0.000     0.000
          105    435       0.01        31.000         0.048   1000.000   0.020      750.000  0.050    0.000     0.000
          105    436       0.05        31.000         0.048   1000.000   0.020      750.000  0.050    0.000     0.000
          105    437       0.10        31.000         0.048   1000.000   0.020      750.000  0.050    0.000     0.000
          105    438       0.03        31.000         0.048   1000.000   0.020      750.000  0.050    0.000     0.000
          105    439       0.03        31.000         0.048   1000.000   0.020      750.000  0.050    0.000     0.000
          105    440       0.16        31.000         0.048   1000.000   0.020      750.000  0.050    0.000     0.000
          105    441       0.02        31.000         0.048   1000.000   0.020      750.000  0.050    0.000     0.000
          105    442       0.02        31.000         0.048   1000.000   0.020      750.000  0.050    0.000     0.000
          105    443       0.08        31.000         0.048   1000.000   0.020      750.000  0.050    0.000     0.000
          106    444       0.03        31.000         0.048   1000.000   0.020      750.000  0.050    0.000     0.000
          106    445       0.03        31.000         0.048   1000.000   0.020      750.000  0.050    0.000     0.000
          106    446       0.62        31.000         0.048   1000.000   0.020      750.000  0.050    0.000     0.000
          106    447       0.00        31.000         0.048   1000.000   0.020      750.000  0.050    0.000     0.000
          106    448       1.27        31.000         0.048   1000.000   0.020      750.000  0.050    0.000     0.000
          106    449       0.06        31.000         0.048   1000.000   0.020      750.000  0.050    0.000     0.000
          106    450       0.07        31.000         0.048   1000.000   0.020      750.000  0.050    0.000     0.000
          106    451       0.16        31.000         0.048   1000.000   0.020      750.000  0.050    0.000     0.000
          106    452       0.01        31.000         0.048   1000.000   0.020      750.000  0.050    0.000     0.000
          106    453       0.02        31.000         0.048   1000.000   0.020      750.000  0.050    0.000     0.000
          106    454       0.14        31.000         0.048   1000.000   0.020      750.000  0.050    0.000     0.000
          107    455       0.02        31.000         0.048   1000.000   0.020      750.000  0.050    0.000     0.000
          107    456       0.03        31.000         0.048   1000.000   0.020      750.000  0.050    0.000     0.000
          107    457       0.05        31.000         0.048   1000.000   0.020      750.000  0.050    0.000     0.000
          107    458       0.01        31.000         0.048   1000.000   0.020      750.000  0.050    0.000     0.000
          107    459       0.02        31.000         0.048   1000.000   0.020      750.000  0.050    0.000     0.000
          107    460       0.18        31.000         0.048   1000.000   0.020      750.000  0.050    0.000     0.000
          107    461       0.70        31.000         0.048   1000.000   0.020      750.000  0.050    0.000     0.000
          107    462       0.00        31.000         0.048   1000.000   0.020      750.000  0.050    0.000     0.000
          107    463       0.00        31.000         0.048   1000.000   0.020      750.000  0.050    0.000     0.000
          107    464       0.01        31.000         0.048   1000.000   0.020      750.000  0.050    0.000     0.000

         Tributary/Main Channel Characteristics
              |--------------Tributary--------------------|---------------------Main---------------------------|
          Sub  Length(km) Slope Width(m) Cond(mm/hr)     N Length(km) Slope Width(m) Depth(m) Cond(mm/hr)     N
            1        0.41 0.289     0.20      0.0000 0.014       0.19 0.280     0.20     0.04      0.0000 0.014
            2        0.47 0.416     0.18      0.0000 0.014       0.30 0.333     0.18     0.04      0.0000 0.014
            3        0.28 0.390     0.11      0.0000 0.014       0.04 0.424     0.11     0.03      0.0000 0.014
            4        0.22 0.438     0.09      0.0000 0.014       0.00 0.088     0.09     0.02      0.0000 0.014
            5        0.29 0.654     0.09      0.0000 0.014       0.11 0.573     0.09     0.02      0.0000 0.014
            6        0.25 0.499     0.13      0.0000 0.014       0.10 0.379     0.13     0.03      0.0000 0.014
            7        0.18 0.540     0.08      0.0000 0.014       0.00 0.423     0.08     0.02      0.0000 0.014
            8        0.28 0.686     0.08      0.0000 0.014       0.01 0.672     0.08     0.02      0.0000 0.014
            9        0.32 0.658     0.12      0.0000 0.014       0.15 0.686     0.12     0.03      0.0000 0.014
           10        0.31 0.460     0.12      0.0000 0.014       0.10 0.377     0.12     0.03      0.0000 0.014
           11        0.32 0.555     0.12      0.0000 0.014       0.13 0.461     0.12     0.03      0.0000 0.014
           12        0.28 0.606     0.09      0.0000 0.014       0.07 0.686     0.09     0.02      0.0000 0.014
           13        0.31 0.703     0.11      0.0000 0.014       0.13 0.593     0.11     0.03      0.0000 0.014
           14        0.33 0.672     0.08      0.0000 0.014       0.05 0.348     0.08     0.02      0.0000 0.014
           15        0.28 0.756     0.08      0.0000 0.014       0.03 0.428     0.08     0.02      0.0000 0.014
           16        0.27 0.602     0.09      0.0000 0.014       0.07 0.346     0.09     0.02      0.0000 0.014
           17        0.22 0.584     0.09      0.0000 0.014       0.02 0.020     0.09     0.02      0.0000 0.014
           18        0.24 0.637     0.09      0.0000 0.014       0.06 0.746     0.09     0.02      0.0000 0.014
           19        0.31 0.756     0.12      0.0000 0.014       0.11 0.626     0.12     0.03      0.0000 0.014
           20        0.27 0.659     0.08      0.0000 0.014       0.01 0.294     0.08     0.02      0.0000 0.014
           21        0.22 0.624     0.08      0.0000 0.014       0.05 0.255     0.08     0.02      0.0000 0.014
           22        0.35 0.687     0.15      0.0000 0.014       0.14 0.557     0.15     0.03      0.0000 0.014
           23        0.27 0.852     0.08      0.0000 0.014       0.04 0.498     0.08     0.02      0.0000 0.014
           24        0.24 0.742     0.11      0.0000 0.014       0.09 0.593     0.11     0.03      0.0000 0.014
           25        0.38 0.649     0.12      0.0000 0.014       0.18 0.553     0.12     0.03      0.0000 0.014
           26        0.30 0.815     0.09      0.0000 0.014       0.01 0.817     0.09     0.02      0.0000 0.014
           27        0.26 0.531     0.12      0.0000 0.014       0.08 0.391     0.12     0.03      0.0000 0.014
           28        0.24 0.763     0.08      0.0000 0.014       0.03 0.427     0.08     0.02      0.0000 0.014
           29        0.27 0.865     0.09      0.0000 0.014       0.11 0.538     0.09     0.02      0.0000 0.014
           30        0.44 0.628     0.14      0.0000 0.014       0.21 0.537     0.14     0.03      0.0000 0.014
           31        0.26 0.454     0.11      0.0000 0.014       0.07 0.022     0.11     0.03      0.0000 0.014
           32        0.30 0.815     0.14      0.0000 0.014       0.10 0.498     0.14     0.03      0.0000 0.014
           33        0.33 0.415     0.08      0.0000 0.014       0.04 0.025     0.08     0.02      0.0000 0.014
           34        0.27 0.443     0.09      0.0000 0.014       0.01 0.000     0.09     0.02      0.0000 0.014
           35        0.31 0.668     0.13      0.0000 0.014       0.16 0.417     0.13     0.03      0.0000 0.014
           36        0.20 0.753     0.08      0.0000 0.014       0.02 0.583     0.08     0.02      0.0000 0.014
           37        0.21 0.351     0.09      0.0000 0.014       0.01 0.086     0.09     0.02      0.0000 0.014
           38        0.22 0.442     0.09      0.0000 0.014       0.07 0.738     0.09     0.02      0.0000 0.014
           39        0.28 1.132     0.13      0.0000 0.014       0.10 0.578     0.13     0.03      0.0000 0.014
           40        0.24 0.982     0.11      0.0000 0.014       0.08 0.723     0.11     0.03      0.0000 0.014
           41        0.27 0.659     0.08      0.0000 0.014       0.05 0.544     0.08     0.02      0.0000 0.014
           42        0.24 1.197     0.09      0.0000 0.014       0.02 0.657     0.09     0.02      0.0000 0.014
           43        0.22 0.658     0.12      0.0000 0.014       0.08 0.384     0.12     0.03      0.0000 0.014
           44        0.37 0.539     0.12      0.0000 0.014       0.16 0.357     0.12     0.03      0.0000 0.014
           45        0.40 0.439     0.20      0.0000 0.014       0.22 0.293     0.20     0.04      0.0000 0.014
           46        0.37 0.980     0.12      0.0000 0.014       0.20 1.008     0.12     0.03      0.0000 0.014
           47        0.24 0.476     0.11      0.0000 0.014       0.06 0.239     0.11     0.03      0.0000 0.014
           48        0.27 0.479     0.14      0.0000 0.014       0.09 0.280     0.14     0.03      0.0000 0.014
           49        0.31 0.475     0.14      0.0000 0.014       0.15 0.310     0.14     0.03      0.0000 0.014
           50        0.41 0.904     0.15      0.0000 0.014       0.26 0.934     0.15     0.03      0.0000 0.014
           51        0.60 0.296     0.21      0.0000 0.014       0.43 0.238     0.21     0.04      0.0000 0.014
           52        0.43 0.639     0.19      0.0000 0.014       0.21 0.460     0.19     0.04      0.0000 0.014
           53        0.27 0.765     0.12      0.0000 0.014       0.10 0.600     0.12     0.03      0.0000 0.014
           54        0.34 0.769     0.16      0.0000 0.014       0.20 0.654     0.16     0.03      0.0000 0.014
           55        0.22 0.527     0.07      0.0000 0.014       0.07 0.335     0.17     0.03      0.0000 0.014
           56        0.04 0.004     0.01      0.0000 0.014       0.03 0.000     0.15     0.03      0.0000 0.014
           57        0.49 0.356     0.20      0.0000 0.014       0.38 0.278     0.27     0.05      0.0000 0.014
           58        0.16 0.689     0.05      0.0000 0.014       0.08 0.567     0.16     0.03      0.0000 0.014
           59        0.39 0.257     0.10      0.0000 0.014       0.29 0.227     0.23     0.04      0.0000 0.014
           60        0.15 0.142     0.05      0.0000 0.014       0.08 0.026     0.20     0.04      0.0000 0.014
           61        0.09 0.612     0.03      0.0000 0.014       0.04 0.291     0.18     0.03      0.0000 0.014
           62        0.23 0.696     0.06      0.0000 0.014       0.08 0.332     0.20     0.04      0.0000 0.014
           63        0.32 0.458     0.11      0.0000 0.014       0.26 0.352     0.27     0.05      0.0000 0.014
           64        0.16 0.469     0.04      0.0000 0.014       0.10 0.342     0.14     0.03      0.0000 0.014
           65        0.23 0.626     0.05      0.0000 0.014       0.05 0.322     0.16     0.03      0.0000 0.014
           66        0.06 0.549     0.02      0.0000 0.014       0.03 0.245     0.21     0.04      0.0000 0.014
           67        0.07 0.569     0.02      0.0000 0.014       0.04 0.035     0.16     0.03      0.0000 0.014
           68        0.14 0.535     0.05      0.0000 0.014       0.05 0.341     0.26     0.05      0.0000 0.014
           69        0.24 0.104     0.08      0.0000 0.014       0.21 0.072     0.22     0.04      0.0000 0.014
           70        0.12 1.231     0.03      0.0000 0.014       0.07 1.039     0.22     0.04      0.0000 0.014
           71        0.14 0.477     0.07      0.0000 0.014       0.10 0.134     0.25     0.04      0.0000 0.014
           72        0.41 0.237     0.13      0.0000 0.014       0.30 0.179     0.31     0.05      0.0000 0.014
           73        0.31 0.814     0.12      0.0000 0.014       0.12 0.279     0.35     0.05      0.0000 0.014
           74        0.28 0.405     0.11      0.0000 0.014       0.16 0.212     0.36     0.06      0.0000 0.014
           75        0.21 0.890     0.12      0.0000 0.014       0.11 0.175     0.41     0.06      0.0000 0.014
           76        0.24 1.077     0.10      0.0000 0.014       0.11 0.178     0.45     0.06      0.0000 0.014
           77        0.12 0.079     0.04      0.0000 0.014       0.06 0.036     0.40     0.06      0.0000 0.014
           78        0.07 0.083     0.02      0.0000 0.014       0.05 0.051     0.49     0.07      0.0000 0.014
           79        0.10 1.084     0.03      0.0000 0.014       0.02 0.232     0.49     0.07      0.0000 0.014
           80        0.34 0.859     0.12      0.0000 0.014       0.12 0.100     0.55     0.07      0.0000 0.014
           81        0.27 0.530     0.12      0.0000 0.014       0.17 0.175     0.63     0.08      0.0000 0.014
           82        0.12 0.797     0.05      0.0000 0.014       0.04 0.116     0.67     0.08      0.0000 0.014
           83        0.20 0.629     0.08      0.0000 0.014       0.10 0.094     0.71     0.09      0.0000 0.014
           84        0.24 0.592     0.10      0.0000 0.014       0.09 0.109     0.76     0.09      0.0000 0.014
           85        0.02 0.308     0.00      0.0000 0.014       0.01 0.017     0.78     0.09      0.0000 0.014
           86        0.13 0.539     0.05      0.0000 0.014       0.05 0.082     0.80     0.09      0.0000 0.014
           87        0.33 0.499     0.11      0.0000 0.014       0.12 0.079     0.83     0.10      0.0000 0.014
           88        0.04 0.345     0.01      0.0000 0.014       0.01 0.061     0.86     0.10      0.0000 0.014
           89        0.37 0.553     0.12      0.0000 0.014       0.12 0.073     0.90     0.10      0.0000 0.014
           90        0.34 0.647     0.10      0.0000 0.014       0.05 0.050     0.92     0.10      0.0000 0.014
           91        0.28 0.613     0.08      0.0000 0.014       0.03 0.031     0.95     0.11      0.0000 0.014
           92        0.30 0.553     0.11      0.0000 0.014       0.12 0.108     0.99     0.11      0.0000 0.014
           93        0.25 0.582     0.12      0.0000 0.014       0.15 0.180     1.02     0.11      0.0000 0.014
           94        0.17 0.301     0.07      0.0000 0.014       0.09 0.067     1.14     0.12      0.0000 0.014
           95        0.04 0.607     0.01      0.0000 0.014       0.01 0.310     1.14     0.12      0.0000 0.014
           96        0.30 0.307     0.15      0.0000 0.014       0.25 0.234     1.22     0.13      0.0000 0.014
           97        0.39 0.432     0.15      0.0000 0.014       0.23 0.046     1.26     0.13      0.0000 0.014
           98        0.04 0.110     0.01      0.0000 0.014       0.01 0.065     1.32     0.13      0.0000 0.014
           99        0.11 0.586     0.04      0.0000 0.014       0.04 0.028     1.36     0.14      0.0000 0.014
          100        0.22 0.552     0.07      0.0000 0.014       0.05 0.021     1.42     0.14      0.0000 0.014
          101        0.15 0.494     0.05      0.0000 0.014       0.05 0.059     1.43     0.14      0.0000 0.014
          102        0.18 0.350     0.07      0.0000 0.014       0.06 0.027     1.45     0.14      0.0000 0.014
          103        0.42 0.255     0.12      0.0000 0.014       0.27 0.032     1.47     0.14      0.0000 0.014
          104        0.14 0.059     0.05      0.0000 0.014       0.07 0.025     1.61     0.15      0.0000 0.014
          105        0.16 0.023     0.05      0.0000 0.014       0.08 0.007     1.64     0.15      0.0000 0.014
          106        0.34 0.321     0.14      0.0000 0.014       0.19 0.011     1.67     0.15      0.0000 0.014
          107        0.28 0.422     0.08      0.0000 0.014       0.03 0.000     1.69     0.16      0.0000 0.014
