1
    SWAT Dec 23 2016    VER 2016/Rev 664                                                                 0/ 0/   0      0: 0: 0

    General Input/Output section (file.cio):                                        
    2/11/2020 16:51:48 QSWAT Workflow v1.5.2                                        
                                                                                    
         Number of years in run:   12
         Area of watershed:        1.675 km2
         Random number generator cycles: 0, use default numbers

         Initial random number seed: wet/dry day prob        748932582
         Initial random number seed: radiation              1948832765
         Initial random number seed: precipitation           857034417
         Initial random number seed: 0.5 hr rainfall          67377721
         Initial random number seed: wind speed              366304404
         Initial random number seed: irrigation             1094585182
         Initial random number seed: relative humidity      1767585417
         Initial random number seed: max temperature         608439319
         Initial random number seed: min temperature         592757081

         Precipitation data used in run:
          Multiple gages read for watershed
             Daily rainfall data used

         Temperature data used in run:
          Multiple gages read for watershed

         PET method used: Penman-Monteith

         Rainfall/Runoff/Routing Option:
          Daily rainfall data
          Runoff estimated with curve number method
          Daily stream routing
           Variable Storage routing method
           Channel dimensions remain constant
           Subbasin algae/CBOD loadings not modeled
           In-stream nutrient transformations modeled using QUAL2E equations

         Subbasin Input Summary:
          Sub Latitude  Elev(m) #HRUs Ponds Elevbnds Wetlnd
            1   -14.29   368.22     1                   
            2   -14.29   363.85     1                   
            3   -14.29   387.84     2                   
            4   -14.29   433.89     1                   
            5   -14.29   371.39     3                   
            6   -14.29   436.50     4                   
            7   -14.29   303.24     2                   
            8   -14.29   440.45     3                   
            9   -14.29   323.09     1                   
           10   -14.29   308.48     2                   
           11   -14.29   306.02     1                   
           12   -14.29   312.34     1                   
           13   -14.29   233.62     1                   
           14   -14.29   210.89     1                   
           15   -14.29   166.64     4                   
           16   -14.29   161.53     5                   
           17   -14.29   379.39     1                   
           18   -14.29   207.00     1                   
           19   -14.29   245.83     2                   
           20   -14.29   220.61     1                   
           21   -14.29   324.53     1                   
           22   -14.29   153.14     1                   
           23   -14.29   247.21     2                   
           24   -14.29   211.90     1                   
           25   -14.29   195.42     1                   
           26   -14.29   177.35     1                   
           27   -14.29   130.55     1                   
           28   -14.29    92.33     1                   
           29   -14.29   116.03     5                   
           30   -14.29    76.58     5                   
           31   -14.29    78.78    14                   

         HRU Input Summary Table 1:
          Sub   HRU   Area(ha) Slope SlpLgth(m) Ovrlnd_N CondII_CN TimeConc(hr) ESCO EPCO
            1      1       8.73 0.464       9.15    0.100     70.00        0.087 0.95 1.00
            2      2      16.67 0.465       9.15    0.100     70.00        0.102 0.95 1.00
            3      3       3.77 0.651       9.15    0.100     70.00        0.082 0.95 1.00
            3      4       0.30 1.000       9.15    0.100     77.00        0.055 0.95 1.00
            4      5       3.09 0.525       9.15    0.100     70.00        0.081 0.95 1.00
            5      6       0.01 0.028      91.46    0.100     70.00        0.613 0.95 1.00
            5      7       3.58 0.660       9.15    0.100     70.00        0.071 0.95 1.00
            5      8       2.52 1.000       9.15    0.100     77.00        0.061 0.95 1.00
            6      9       0.01 0.000     121.95    0.100     70.00        3.952 0.95 1.00
            6     10       0.01 0.014     121.95    0.100     70.00        0.897 0.95 1.00
            6     11       2.34 0.663       9.15    0.100     70.00        0.072 0.95 1.00
            6     12       4.23 1.000       9.15    0.100     77.00        0.074 0.95 1.00
            7     13       0.01 0.000     121.95    0.100     70.00        3.952 0.95 1.00
            7     14       5.58 0.462       9.15    0.100     70.00        0.101 0.95 1.00
            8     15       0.01 0.000     121.95    0.100     70.00        3.952 0.95 1.00
            8     16       0.03 0.022      91.46    0.100     70.00        0.660 0.95 1.00
            8     17       6.45 0.391       9.15    0.100     70.00        0.095 0.95 1.00
            9     18       4.88 0.527       9.15    0.100     70.00        0.094 0.95 1.00
           10     19       0.01 0.029      91.46    0.100     70.00        0.607 0.95 1.00
           10     20       5.36 0.521       9.15    0.100     70.00        0.095 0.95 1.00
           11     21       6.29 0.606       9.15    0.100     70.00        0.085 0.95 1.00
           12     22      12.00 0.555       9.15    0.100     70.00        0.106 0.95 1.00
           13     23      11.50 0.652       9.15    0.100     70.00        0.089 0.95 1.00
           14     24       3.77 0.649       9.15    0.100     70.00        0.082 0.95 1.00
           15     25       0.03 0.347       9.15    0.100     72.00        0.073 0.95 1.00
           15     26       0.49 0.533       9.15    0.100     55.00        0.067 0.95 1.00
           15     27       4.31 0.872       9.15    0.100     70.00        0.075 0.95 1.00
           15     28       0.01 0.033      91.46    0.100     70.00        0.584 0.95 1.00
           16     29       0.07 0.257       9.15    0.100     59.00        0.080 0.95 1.00
           16     30       2.68 0.498       9.15    0.100     55.00        0.073 0.95 1.00
           16     31       0.02 0.000     121.95    0.100     70.00        3.952 0.95 1.00
           16     32       6.29 0.919       9.15    0.100     70.00        0.070 0.95 1.00
           16     33       0.03 0.183      18.29    0.100     70.00        0.133 0.95 1.00
           17     34       5.31 0.560       9.15    0.100     70.00        0.084 0.95 1.00
           18     35       0.11 0.416       9.15    0.100     70.00        0.075 0.95 1.00
           19     36       0.01 0.000     121.95    0.100     70.00        3.952 0.95 1.00
           19     37       5.02 0.670       9.15    0.100     70.00        0.079 0.95 1.00
           20     38       2.72 0.590       9.15    0.100     70.00        0.080 0.95 1.00
           21     39      13.75 0.443       9.15    0.100     70.00        0.100 0.95 1.00
           22     40       1.68 0.579       9.15    0.100     70.00        0.076 0.95 1.00
           23     41       0.02 0.001     121.95    0.100     70.00        1.981 0.95 1.00
           23     42       3.28 0.457       9.15    0.100     70.00        0.084 0.95 1.00
           24     43       1.25 0.508       9.15    0.100     70.00        0.078 0.95 1.00
           25     44       2.21 0.502       9.15    0.100     70.00        0.084 0.95 1.00
           26     45       2.25 0.636       9.15    0.100     70.00        0.078 0.95 1.00
           27     46       3.11 0.505       9.15    0.100     70.00        0.083 0.95 1.00
           28     47       0.09 0.367       9.15    0.100     70.00        0.081 0.95 1.00
           29     48       0.07 0.059      60.98    0.100     55.00        0.385 0.95 1.00
           29     49       0.01 0.028      91.46    0.100     70.00        0.613 0.95 1.00
           29     50       8.16 0.696       9.15    0.100     70.00        0.085 0.95 1.00
           29     51       0.01 0.030      91.46    0.100     70.00        0.601 0.95 1.00
           29     52       0.01 0.109      60.98    0.100     70.00        0.320 0.95 1.00
           30     53       0.02 0.045      91.46    0.100     55.00        0.533 0.95 1.00
           30     54       0.51 0.606       9.15    0.100     70.00        0.075 0.95 1.00
           30     55       0.03 0.330       9.15    0.100     70.00        0.075 0.95 1.00
           30     56       0.01 0.002     121.95    0.100     70.00        1.609 0.95 1.00
           30     57       0.01 0.033      91.46    0.100     70.00        0.584 0.95 1.00
           31     58       0.01 0.029      91.46    0.140     86.00        0.743 0.95 1.00
           31     59       0.09 0.059      60.98    0.140     86.00        0.472 0.95 1.00
           31     60       0.01 0.134      24.39    0.140     91.00        0.212 0.95 1.00
           31     61       0.01 0.004     121.95    0.100     55.00        1.307 0.95 1.00
           31     62       0.44 0.291       9.15    0.100     55.00        0.081 0.95 1.00
           31     63       1.64 0.716       9.15    0.100     70.00        0.075 0.95 1.00
           31     64       0.04 0.000     121.95    0.100     70.00        3.952 0.95 1.00
           31     65       0.02 0.018     121.95    0.100     70.00        0.833 0.95 1.00
           31     66       0.18 0.163      18.29    0.100     70.00        0.140 0.95 1.00
           31     67       0.01 0.529       9.15    0.100     66.00        0.064 0.95 1.00
           31     68       0.06 0.002     121.95    0.100     66.00        1.610 0.95 1.00
           31     69       0.03 0.019     121.95    0.100     66.00        0.819 0.95 1.00
           31     70       0.18 0.122      24.39    0.100     66.00        0.181 0.95 1.00
           31     71       0.02 0.206      15.24    0.100     66.00        0.115 0.95 1.00

         HRU CN Input Summary Table:
          Sub   HRU   Area(ha)  LULC      Soil    CN1    CN2    CN3  Wilting Point (mm H2O)  Field Capacity (mm H2O)  Saturation (mm H2O)
            1      1       8.73  FRSE  FAGASA     51.2   70.0   85.7                   132.2                     97.2                365.5
            2      2      16.67  FRSE  FAGASA     51.2   70.0   85.7                   132.2                     97.2                365.5
            3      3       3.77  FRSE  FAGASA     51.2   70.0   85.7                   132.2                     97.2                365.5
            3      4       0.30  FRSD  FAGASA     59.3   77.0   89.9                   132.2                     97.2                365.5
            4      5       3.09  FRSE  FAGASA     51.2   70.0   85.7                   132.2                     97.2                365.5
            5      6       0.01  FRSE  FAGASA     51.2   70.0   85.7                   132.2                     97.2                365.5
            5      7       3.58  FRSE  FAGASA     51.2   70.0   85.7                   132.2                     97.2                365.5
            5      8       2.52  FRSD  FAGASA     59.3   77.0   89.9                   132.2                     97.2                365.5
            6      9       0.01  FRSE  FAGASA     51.2   70.0   85.7                   132.2                     97.2                365.5
            6     10       0.01  FRSE  FAGASA     51.2   70.0   85.7                   132.2                     97.2                365.5
            6     11       2.34  FRSE  FAGASA     51.2   70.0   85.7                   132.2                     97.2                365.5
            6     12       4.23  FRSD  FAGASA     59.3   77.0   89.9                   132.2                     97.2                365.5
            7     13       0.01  FRSE  FAGASA     51.2   70.0   85.7                   132.2                     97.2                365.5
            7     14       5.58  FRSE  FAGASA     51.2   70.0   85.7                   132.2                     97.2                365.5
            8     15       0.01  FRSE  FAGASA     51.2   70.0   85.7                   132.2                     97.2                365.5
            8     16       0.03  FRSE  FAGASA     51.2   70.0   85.7                   132.2                     97.2                365.5
            8     17       6.45  FRSE  FAGASA     51.2   70.0   85.7                   132.2                     97.2                365.5
            9     18       4.88  FRSE  FAGASA     51.2   70.0   85.7                   132.2                     97.2                365.5
           10     19       0.01  FRSE  FAGASA     51.2   70.0   85.7                   132.2                     97.2                365.5
           10     20       5.36  FRSE  FAGASA     51.2   70.0   85.7                   132.2                     97.2                365.5
           11     21       6.29  FRSE  FAGASA     51.2   70.0   85.7                   132.2                     97.2                365.5
           12     22      12.00  FRSE  FAGASA     51.2   70.0   85.7                   132.2                     97.2                365.5
           13     23      11.50  FRSE  FAGASA     51.2   70.0   85.7                   132.2                     97.2                365.5
           14     24       3.77  FRSE  FAGASA     51.2   70.0   85.7                   132.2                     97.2                365.5
           15     25       0.03  SWCH  FAGASA     53.4   72.0   86.9                   132.2                     97.2                365.5
           15     26       0.49  FRSE  AUA        35.3   55.0   74.5                   211.7                    165.8                763.4
           15     27       4.31  FRSE  FAGASA     51.2   70.0   85.7                   132.2                     97.2                365.5
           15     28       0.01  FRSE  AUA        51.2   70.0   85.7                   211.7                    165.8                763.4
           16     29       0.07  SWCH  AUA        39.4   59.0   77.7                   211.7                    165.8                763.4
           16     30       2.68  FRSE  AUA        35.3   55.0   74.5                   211.7                    165.8                763.4
           16     31       0.02  FRSE  FAGASA     51.2   70.0   85.7                   132.2                     97.2                365.5
           16     32       6.29  FRSE  FAGASA     51.2   70.0   85.7                   132.2                     97.2                365.5
           16     33       0.03  FRSE  AUA        51.2   70.0   85.7                   211.7                    165.8                763.4
           17     34       5.31  FRSE  FAGASA     51.2   70.0   85.7                   132.2                     97.2                365.5
           18     35       0.11  FRSE  FAGASA     51.2   70.0   85.7                   132.2                     97.2                365.5
           19     36       0.01  FRSE  FAGASA     51.2   70.0   85.7                   132.2                     97.2                365.5
           19     37       5.02  FRSE  FAGASA     51.2   70.0   85.7                   132.2                     97.2                365.5
           20     38       2.72  FRSE  FAGASA     51.2   70.0   85.7                   132.2                     97.2                365.5
           21     39      13.75  FRSE  FAGASA     51.2   70.0   85.7                   132.2                     97.2                365.5
           22     40       1.68  FRSE  FAGASA     51.2   70.0   85.7                   132.2                     97.2                365.5
           23     41       0.02  FRSE  FAGASA     51.2   70.0   85.7                   132.2                     97.2                365.5
           23     42       3.28  FRSE  FAGASA     51.2   70.0   85.7                   132.2                     97.2                365.5
           24     43       1.25  FRSE  FAGASA     51.2   70.0   85.7                   132.2                     97.2                365.5
           25     44       2.21  FRSE  FAGASA     51.2   70.0   85.7                   132.2                     97.2                365.5
           26     45       2.25  FRSE  FAGASA     51.2   70.0   85.7                   132.2                     97.2                365.5
           27     46       3.11  FRSE  FAGASA     51.2   70.0   85.7                   132.2                     97.2                365.5
           28     47       0.09  FRSE  FAGASA     51.2   70.0   85.7                   132.2                     97.2                365.5
           29     48       0.07  FRSE  AUA        35.3   55.0   74.5                   211.7                    165.8                763.4
           29     49       0.01  FRSE  FAGASA     51.2   70.0   85.7                   132.2                     97.2                365.5
           29     50       8.16  FRSE  FAGASA     51.2   70.0   85.7                   132.2                     97.2                365.5
           29     51       0.01  FRSE  AUA        51.2   70.0   85.7                   211.7                    165.8                763.4
           29     52       0.01  FRSE  AUA        51.2   70.0   85.7                   211.7                    165.8                763.4
           30     53       0.02  FRSE  AUA        35.3   55.0   74.5                   211.7                    165.8                763.4
           30     54       0.51  FRSE  FAGASA     51.2   70.0   85.7                   132.2                     97.2                365.5
           30     55       0.03  FRSE  FAGASA     51.2   70.0   85.7                   132.2                     97.2                365.5
           30     56       0.01  FRSE  AUA        51.2   70.0   85.7                   211.7                    165.8                763.4
           30     57       0.01  FRSE  AUA        51.2   70.0   85.7                   211.7                    165.8                763.4
           31     58       0.01  BARR  AUA        71.4   86.0   94.5                   211.7                    165.8                763.4
           31     59       0.09  BARR  AUA        71.4   86.0   94.5                   211.7                    165.8                763.4
           31     60       0.01  BARR  FAGASA     79.8   91.0   96.7                   132.2                     97.2                365.5
           31     61       0.01  FRSE  AUA        35.3   55.0   74.5                   211.7                    165.8                763.4
           31     62       0.44  FRSE  AUA        35.3   55.0   74.5                   211.7                    165.8                763.4
           31     63       1.64  FRSE  FAGASA     51.2   70.0   85.7                   132.2                     97.2                365.5
           31     64       0.04  FRSE  AUA        51.2   70.0   85.7                   211.7                    165.8                763.4
           31     65       0.02  FRSE  AUA        51.2   70.0   85.7                   211.7                    165.8                763.4
           31     66       0.18  FRSE  AUA        51.2   70.0   85.7                   211.7                    165.8                763.4
           31     67       0.01  FRSD  AUA        46.8   66.0   83.0                   211.7                    165.8                763.4
           31     68       0.06  FRSD  AUA        46.8   66.0   83.0                   211.7                    165.8                763.4
           31     69       0.03  FRSD  AUA        46.8   66.0   83.0                   211.7                    165.8                763.4
           31     70       0.18  FRSD  AUA        46.8   66.0   83.0                   211.7                    165.8                763.4
           31     71       0.02  FRSD  FAGASA     46.8   66.0   83.0                   132.2                     97.2                365.5

         HRU Input Summary Table 2:
          Sub   HRU   Area(ha)         SoilName Hydgrp MaxRtDpth(mm) Albedo USLE_K USLE_P USLE_LS ProfileAWC(mm) IniSoilH2O(mm)
            1      1       8.73 FAGASA             C           840.00   0.16   0.10   1.00    7.99     97.200         71.232
            2      2      16.67 FAGASA             C           840.00   0.16   0.10   1.00    8.01     97.200         71.232
            3      3       3.77 FAGASA             C           840.00   0.16   0.10   1.00   12.96     97.200         71.232
            3      4       0.30 FAGASA             C           840.00   0.16   0.10   1.00   21.18     97.200         71.232
            4      5       3.09 FAGASA             C           840.00   0.16   0.10   1.00    9.60     97.200         71.232
            5      6       0.01 FAGASA             C           840.00   0.16   0.10   1.00    0.42     97.200         71.232
            5      7       3.58 FAGASA             C           840.00   0.16   0.10   1.00   13.20     97.200         71.232
            5      8       2.52 FAGASA             C           840.00   0.16   0.10   1.00   21.18     97.200         71.232
            6      9       0.01 FAGASA             C           840.00   0.16   0.10   1.00    0.07     97.200         71.232
            6     10       0.01 FAGASA             C           840.00   0.16   0.10   1.00    0.21     97.200         71.232
            6     11       2.34 FAGASA             C           840.00   0.16   0.10   1.00   13.28     97.200         71.232
            6     12       4.23 FAGASA             C           840.00   0.16   0.10   1.00   21.18     97.200         71.232
            7     13       0.01 FAGASA             C           840.00   0.16   0.10   1.00    0.07     97.200         71.232
            7     14       5.58 FAGASA             C           840.00   0.16   0.10   1.00    7.94     97.200         71.232
            8     15       0.01 FAGASA             C           840.00   0.16   0.10   1.00    0.07     97.200         71.232
            8     16       0.03 FAGASA             C           840.00   0.16   0.10   1.00    0.31     97.200         71.232
            8     17       6.45 FAGASA             C           840.00   0.16   0.10   1.00    6.12     97.200         71.232
            9     18       4.88 FAGASA             C           840.00   0.16   0.10   1.00    9.66     97.200         71.232
           10     19       0.01 FAGASA             C           840.00   0.16   0.10   1.00    0.44     97.200         71.232
           10     20       5.36 FAGASA             C           840.00   0.16   0.10   1.00    9.50     97.200         71.232
           11     21       6.29 FAGASA             C           840.00   0.16   0.10   1.00   11.77     97.200         71.232
           12     22      12.00 FAGASA             C           840.00   0.16   0.10   1.00   10.41     97.200         71.232
           13     23      11.50 FAGASA             C           840.00   0.16   0.10   1.00   12.99     97.200         71.232
           14     24       3.77 FAGASA             C           840.00   0.16   0.10   1.00   12.91     97.200         71.232
           15     25       0.03 FAGASA             C           840.00   0.16   0.10   1.00    5.06     97.200         71.232
           15     26       0.49 AUA                B          1520.00   0.16   0.17   1.00    9.82    165.800        121.506
           15     27       4.31 FAGASA             C           840.00   0.16   0.10   1.00   18.43     97.200         71.232
           15     28       0.01 AUA                B          1520.00   0.16   0.17   1.00    0.52    165.800        121.506
           16     29       0.07 AUA                B          1520.00   0.16   0.17   1.00    3.09    165.800        121.506
           16     30       2.68 AUA                B          1520.00   0.16   0.17   1.00    8.88    165.800        121.506
           16     31       0.02 FAGASA             C           840.00   0.16   0.10   1.00    0.07     97.200         71.232
           16     32       6.29 FAGASA             C           840.00   0.16   0.10   1.00   19.48     97.200         71.232
           16     33       0.03 AUA                B          1520.00   0.16   0.17   1.00    2.68    165.800        121.506
           17     34       5.31 FAGASA             C           840.00   0.16   0.10   1.00   10.54     97.200         71.232
           18     35       0.11 FAGASA             C           840.00   0.16   0.10   1.00    6.75     97.200         71.232
           19     36       0.01 FAGASA             C           840.00   0.16   0.10   1.00    0.07     97.200         71.232
           19     37       5.02 FAGASA             C           840.00   0.16   0.10   1.00   13.46     97.200         71.232
           20     38       2.72 FAGASA             C           840.00   0.16   0.10   1.00   11.34     97.200         71.232
           21     39      13.75 FAGASA             C           840.00   0.16   0.10   1.00    7.44     97.200         71.232
           22     40       1.68 FAGASA             C           840.00   0.16   0.10   1.00   11.05     97.200         71.232
           23     41       0.02 FAGASA             C           840.00   0.16   0.10   1.00    0.07     97.200         71.232
           23     42       3.28 FAGASA             C           840.00   0.16   0.10   1.00    7.80     97.200         71.232
           24     43       1.25 FAGASA             C           840.00   0.16   0.10   1.00    9.15     97.200         71.232
           25     44       2.21 FAGASA             C           840.00   0.16   0.10   1.00    8.99     97.200         71.232
           26     45       2.25 FAGASA             C           840.00   0.16   0.10   1.00   12.57     97.200         71.232
           27     46       3.11 FAGASA             C           840.00   0.16   0.10   1.00    9.07     97.200         71.232
           28     47       0.09 FAGASA             C           840.00   0.16   0.10   1.00    5.53     97.200         71.232
           29     48       0.07 AUA                B          1520.00   0.16   0.17   1.00    0.96    165.800        121.506
           29     49       0.01 FAGASA             C           840.00   0.16   0.10   1.00    0.42     97.200         71.232
           29     50       8.16 FAGASA             C           840.00   0.16   0.10   1.00   14.13     97.200         71.232
           29     51       0.01 AUA                B          1520.00   0.16   0.17   1.00    0.46    165.800        121.506
           29     52       0.01 AUA                B          1520.00   0.16   0.17   1.00    2.41    165.800        121.506
           30     53       0.02 AUA                B          1520.00   0.16   0.17   1.00    0.80    165.800        121.506
           30     54       0.51 FAGASA             C           840.00   0.16   0.10   1.00   11.77     97.200         71.232
           30     55       0.03 FAGASA             C           840.00   0.16   0.10   1.00    4.66     97.200         71.232
           30     56       0.01 AUA                B          1520.00   0.16   0.17   1.00    0.08    165.800        121.506
           30     57       0.01 AUA                B          1520.00   0.16   0.17   1.00    0.52    165.800        121.506
           31     58       0.01 AUA                B           100.00   0.16   0.17   1.00    0.44    165.800        121.506
           31     59       0.09 AUA                B           100.00   0.16   0.17   1.00    0.96    165.800        121.506
           31     60       0.01 FAGASA             C           100.00   0.16   0.10   1.00    1.93     97.200         71.232
           31     61       0.01 AUA                B          1520.00   0.16   0.17   1.00    0.10    165.800        121.506
           31     62       0.44 AUA                B          1520.00   0.16   0.17   1.00    3.79    165.800        121.506
           31     63       1.64 FAGASA             C           840.00   0.16   0.10   1.00   14.65     97.200         71.232
           31     64       0.04 AUA                B          1520.00   0.16   0.17   1.00    0.07    165.800        121.506
           31     65       0.02 AUA                B          1520.00   0.16   0.17   1.00    0.27    165.800        121.506
           31     66       0.18 AUA                B          1520.00   0.16   0.17   1.00    2.22    165.800        121.506
           31     67       0.01 AUA                B          1520.00   0.16   0.17   1.00    9.71    165.800        121.506
           31     68       0.06 AUA                B          1520.00   0.16   0.17   1.00    0.08    165.800        121.506
           31     69       0.03 AUA                B          1520.00   0.16   0.17   1.00    0.29    165.800        121.506
           31     70       0.18 AUA                B          1520.00   0.16   0.17   1.00    1.67    165.800        121.506
           31     71       0.02 FAGASA             C           840.00   0.16   0.10   1.00    2.92     97.200         71.232

         HRU Input Summary Table 3:
          Sub   HRU   Area(ha) Urban Irrig DrainTiles Pothole Pstcide Biomix Septic
            1      1       8.73                                          0.20 x
            2      2      16.67                                          0.20 x
            3      3       3.77                                          0.20 x
            3      4       0.30                                          0.20 x
            4      5       3.09                                          0.20 x
            5      6       0.01                                          0.20 x
            5      7       3.58                                          0.20 x
            5      8       2.52                                          0.20 x
            6      9       0.01                                          0.20 x
            6     10       0.01                                          0.20 x
            6     11       2.34                                          0.20 x
            6     12       4.23                                          0.20 x
            7     13       0.01                                          0.20 x
            7     14       5.58                                          0.20 x
            8     15       0.01                                          0.20 x
            8     16       0.03                                          0.20 x
            8     17       6.45                                          0.20 x
            9     18       4.88                                          0.20 x
           10     19       0.01                                          0.20 x
           10     20       5.36                                          0.20 x
           11     21       6.29                                          0.20 x
           12     22      12.00                                          0.20 x
           13     23      11.50                                          0.20 x
           14     24       3.77                                          0.20 x
           15     25       0.03                                          0.20 x
           15     26       0.49                                          0.20 x
           15     27       4.31                                          0.20 x
           15     28       0.01                                          0.20 x
           16     29       0.07                                          0.20 x
           16     30       2.68                                          0.20 x
           16     31       0.02                                          0.20 x
           16     32       6.29                                          0.20 x
           16     33       0.03                                          0.20 x
           17     34       5.31                                          0.20 x
           18     35       0.11                                          0.20 x
           19     36       0.01                                          0.20 x
           19     37       5.02                                          0.20 x
           20     38       2.72                                          0.20 x
           21     39      13.75                                          0.20 x
           22     40       1.68                                          0.20 x
           23     41       0.02                                          0.20 x
           23     42       3.28                                          0.20 x
           24     43       1.25                                          0.20 x
           25     44       2.21                                          0.20 x
           26     45       2.25                                          0.20 x
           27     46       3.11                                          0.20 x
           28     47       0.09                                          0.20 x
           29     48       0.07                                          0.20 x
           29     49       0.01                                          0.20 x
           29     50       8.16                                          0.20 x
           29     51       0.01                                          0.20 x
           29     52       0.01                                          0.20 x
           30     53       0.02                                          0.20 x
           30     54       0.51                                          0.20 x
           30     55       0.03                                          0.20 x
           30     56       0.01                                          0.20 x
           30     57       0.01                                          0.20 x
           31     58       0.01                                          0.20 x
           31     59       0.09                                          0.20 x
           31     60       0.01                                          0.20 x
           31     61       0.01                                          0.20 x
           31     62       0.44                                          0.20 x
           31     63       1.64                                          0.20 x
           31     64       0.04                                          0.20 x
           31     65       0.02                                          0.20 x
           31     66       0.18                                          0.20 x
           31     67       0.01                                          0.20 x
           31     68       0.06                                          0.20 x
           31     69       0.03                                          0.20 x
           31     70       0.18                                          0.20 x
           31     71       0.02                                          0.20 x

         HRU Input Summary Table 4 (Groundwater):
          Sub   HRU   Area(ha) GWdelay(days), GWalpha(days) GWQmin(mm) GWrevap Revapmin(mm) Deepfr NO3(ppm) SolP(ppm)
            1      1       8.73        31.000         0.048   1000.000   0.020      750.000  0.050    0.000     0.000
            2      2      16.67        31.000         0.048   1000.000   0.020      750.000  0.050    0.000     0.000
            3      3       3.77        31.000         0.048   1000.000   0.020      750.000  0.050    0.000     0.000
            3      4       0.30        31.000         0.048   1000.000   0.020      750.000  0.050    0.000     0.000
            4      5       3.09        31.000         0.048   1000.000   0.020      750.000  0.050    0.000     0.000
            5      6       0.01        31.000         0.048   1000.000   0.020      750.000  0.050    0.000     0.000
            5      7       3.58        31.000         0.048   1000.000   0.020      750.000  0.050    0.000     0.000
            5      8       2.52        31.000         0.048   1000.000   0.020      750.000  0.050    0.000     0.000
            6      9       0.01        31.000         0.048   1000.000   0.020      750.000  0.050    0.000     0.000
            6     10       0.01        31.000         0.048   1000.000   0.020      750.000  0.050    0.000     0.000
            6     11       2.34        31.000         0.048   1000.000   0.020      750.000  0.050    0.000     0.000
            6     12       4.23        31.000         0.048   1000.000   0.020      750.000  0.050    0.000     0.000
            7     13       0.01        31.000         0.048   1000.000   0.020      750.000  0.050    0.000     0.000
            7     14       5.58        31.000         0.048   1000.000   0.020      750.000  0.050    0.000     0.000
            8     15       0.01        31.000         0.048   1000.000   0.020      750.000  0.050    0.000     0.000
            8     16       0.03        31.000         0.048   1000.000   0.020      750.000  0.050    0.000     0.000
            8     17       6.45        31.000         0.048   1000.000   0.020      750.000  0.050    0.000     0.000
            9     18       4.88        31.000         0.048   1000.000   0.020      750.000  0.050    0.000     0.000
           10     19       0.01        31.000         0.048   1000.000   0.020      750.000  0.050    0.000     0.000
           10     20       5.36        31.000         0.048   1000.000   0.020      750.000  0.050    0.000     0.000
           11     21       6.29        31.000         0.048   1000.000   0.020      750.000  0.050    0.000     0.000
           12     22      12.00        31.000         0.048   1000.000   0.020      750.000  0.050    0.000     0.000
           13     23      11.50        31.000         0.048   1000.000   0.020      750.000  0.050    0.000     0.000
           14     24       3.77        31.000         0.048   1000.000   0.020      750.000  0.050    0.000     0.000
           15     25       0.03        31.000         0.048   1000.000   0.020      750.000  0.050    0.000     0.000
           15     26       0.49        31.000         0.048   1000.000   0.020      750.000  0.050    0.000     0.000
           15     27       4.31        31.000         0.048   1000.000   0.020      750.000  0.050    0.000     0.000
           15     28       0.01        31.000         0.048   1000.000   0.020      750.000  0.050    0.000     0.000
           16     29       0.07        31.000         0.048   1000.000   0.020      750.000  0.050    0.000     0.000
           16     30       2.68        31.000         0.048   1000.000   0.020      750.000  0.050    0.000     0.000
           16     31       0.02        31.000         0.048   1000.000   0.020      750.000  0.050    0.000     0.000
           16     32       6.29        31.000         0.048   1000.000   0.020      750.000  0.050    0.000     0.000
           16     33       0.03        31.000         0.048   1000.000   0.020      750.000  0.050    0.000     0.000
           17     34       5.31        31.000         0.048   1000.000   0.020      750.000  0.050    0.000     0.000
           18     35       0.11        31.000         0.048   1000.000   0.020      750.000  0.050    0.000     0.000
           19     36       0.01        31.000         0.048   1000.000   0.020      750.000  0.050    0.000     0.000
           19     37       5.02        31.000         0.048   1000.000   0.020      750.000  0.050    0.000     0.000
           20     38       2.72        31.000         0.048   1000.000   0.020      750.000  0.050    0.000     0.000
           21     39      13.75        31.000         0.048   1000.000   0.020      750.000  0.050    0.000     0.000
           22     40       1.68        31.000         0.048   1000.000   0.020      750.000  0.050    0.000     0.000
           23     41       0.02        31.000         0.048   1000.000   0.020      750.000  0.050    0.000     0.000
           23     42       3.28        31.000         0.048   1000.000   0.020      750.000  0.050    0.000     0.000
           24     43       1.25        31.000         0.048   1000.000   0.020      750.000  0.050    0.000     0.000
           25     44       2.21        31.000         0.048   1000.000   0.020      750.000  0.050    0.000     0.000
           26     45       2.25        31.000         0.048   1000.000   0.020      750.000  0.050    0.000     0.000
           27     46       3.11        31.000         0.048   1000.000   0.020      750.000  0.050    0.000     0.000
           28     47       0.09        31.000         0.048   1000.000   0.020      750.000  0.050    0.000     0.000
           29     48       0.07        31.000         0.048   1000.000   0.020      750.000  0.050    0.000     0.000
           29     49       0.01        31.000         0.048   1000.000   0.020      750.000  0.050    0.000     0.000
           29     50       8.16        31.000         0.048   1000.000   0.020      750.000  0.050    0.000     0.000
           29     51       0.01        31.000         0.048   1000.000   0.020      750.000  0.050    0.000     0.000
           29     52       0.01        31.000         0.048   1000.000   0.020      750.000  0.050    0.000     0.000
           30     53       0.02        31.000         0.048   1000.000   0.020      750.000  0.050    0.000     0.000
           30     54       0.51        31.000         0.048   1000.000   0.020      750.000  0.050    0.000     0.000
           30     55       0.03        31.000         0.048   1000.000   0.020      750.000  0.050    0.000     0.000
           30     56       0.01        31.000         0.048   1000.000   0.020      750.000  0.050    0.000     0.000
           30     57       0.01        31.000         0.048   1000.000   0.020      750.000  0.050    0.000     0.000
           31     58       0.01        31.000         0.048   1000.000   0.020      750.000  0.050    0.000     0.000
           31     59       0.09        31.000         0.048   1000.000   0.020      750.000  0.050    0.000     0.000
           31     60       0.01        31.000         0.048   1000.000   0.020      750.000  0.050    0.000     0.000
           31     61       0.01        31.000         0.048   1000.000   0.020      750.000  0.050    0.000     0.000
           31     62       0.44        31.000         0.048   1000.000   0.020      750.000  0.050    0.000     0.000
           31     63       1.64        31.000         0.048   1000.000   0.020      750.000  0.050    0.000     0.000
           31     64       0.04        31.000         0.048   1000.000   0.020      750.000  0.050    0.000     0.000
           31     65       0.02        31.000         0.048   1000.000   0.020      750.000  0.050    0.000     0.000
           31     66       0.18        31.000         0.048   1000.000   0.020      750.000  0.050    0.000     0.000
           31     67       0.01        31.000         0.048   1000.000   0.020      750.000  0.050    0.000     0.000
           31     68       0.06        31.000         0.048   1000.000   0.020      750.000  0.050    0.000     0.000
           31     69       0.03        31.000         0.048   1000.000   0.020      750.000  0.050    0.000     0.000
           31     70       0.18        31.000         0.048   1000.000   0.020      750.000  0.050    0.000     0.000
           31     71       0.02        31.000         0.048   1000.000   0.020      750.000  0.050    0.000     0.000

         Tributary/Main Channel Characteristics
              |--------------Tributary--------------------|---------------------Main---------------------------|
          Sub  Length(km) Slope Width(m) Cond(mm/hr)     N Length(km) Slope Width(m) Depth(m) Cond(mm/hr)     N
            1        0.42 0.358     0.30      0.0000 0.014       0.17 0.143     0.30     0.05      0.0000 0.014
            2        0.72 0.315     0.44      0.0000 0.014       0.37 0.276     0.44     0.06      0.0000 0.014
            3        0.49 0.508     0.19      0.0000 0.014       0.19 0.471     0.19     0.04      0.0000 0.014
            4        0.32 0.436     0.16      0.0000 0.014       0.01 0.498     0.16     0.03      0.0000 0.014
            5        0.43 0.736     0.24      0.0000 0.014       0.06 0.479     0.24     0.04      0.0000 0.014
            6        0.73 0.636     0.25      0.0000 0.014       0.39 0.431     0.25     0.04      0.0000 0.014
            7        0.64 0.344     0.23      0.0000 0.014       0.20 0.337     0.23     0.04      0.0000 0.014
            8        0.46 0.307     0.25      0.0000 0.014       0.16 0.299     0.25     0.04      0.0000 0.014
            9        0.60 0.419     0.21      0.0000 0.014       0.20 0.273     0.21     0.04      0.0000 0.014
           10        0.62 0.409     0.22      0.0000 0.014       0.14 0.276     0.22     0.04      0.0000 0.014
           11        0.53 0.535     0.25      0.0000 0.014       0.12 0.554     0.25     0.04      0.0000 0.014
           12        0.89 0.359     0.36      0.0000 0.014       0.50 0.321     0.36     0.06      0.0000 0.014
           13        0.65 0.441     0.35      0.0000 0.014       0.30 0.305     0.35     0.05      0.0000 0.014
           14        0.46 0.546     0.18      0.0000 0.014       0.08 0.394     0.18     0.04      0.0000 0.014
           15        0.50 0.569     0.21      0.0000 0.014       0.12 0.144     0.21     0.04      0.0000 0.014
           16        0.52 0.525     0.31      0.0000 0.014       0.18 0.173     0.31     0.05      0.0000 0.014
           17        0.42 0.401     0.22      0.0000 0.014       0.22 0.241     0.41     0.06      0.0000 0.014
           18        0.08 0.434     0.02      0.0000 0.014       0.03 0.098     0.33     0.05      0.0000 0.014
           19        0.39 0.443     0.21      0.0000 0.014       0.28 0.336     0.42     0.06      0.0000 0.014
           20        0.36 0.552     0.15      0.0000 0.014       0.06 0.253     0.42     0.06      0.0000 0.014
           21        0.65 0.317     0.39      0.0000 0.014       0.42 0.160     0.71     0.09      0.0000 0.014
           22        0.22 0.303     0.11      0.0000 0.014       0.13 0.164     0.66     0.08      0.0000 0.014
           23        0.31 0.381     0.17      0.0000 0.014       0.16 0.260     0.92     0.10      0.0000 0.014
           24        0.22 0.371     0.09      0.0000 0.014       0.09 0.138     1.03     0.11      0.0000 0.014
           25        0.33 0.388     0.13      0.0000 0.014       0.16 0.334     1.10     0.12      0.0000 0.014
           26        0.33 0.458     0.13      0.0000 0.014       0.07 0.172     1.22     0.12      0.0000 0.014
           27        0.34 0.433     0.16      0.0000 0.014       0.19 0.220     1.49     0.14      0.0000 0.014
           28        0.11 0.395     0.02      0.0000 0.014       0.01 0.134     1.51     0.14      0.0000 0.014
           29        0.56 0.423     0.29      0.0000 0.014       0.31 0.131     1.65     0.15      0.0000 0.014
           30        0.26 0.546     0.06      0.0000 0.014       0.01 0.002     1.68     0.16      0.0000 0.014
           31        0.44 0.344     0.15      0.0000 0.014       0.15 0.032     1.76     0.16      0.0000 0.014
