1
    SWAT Dec 23 2016    VER 2016/Rev 664                                                                 0/ 0/   0      0: 0: 0

    General Input/Output section (file.cio):                                        
    2/11/2020 16:51:48 QSWAT Workflow v1.5.2                                        
                                                                                    


       SUB      GIS  MON   AREAkm2  PRECIPmm SNOMELTmm     PETmm      ETmm      SWmm    PERCmm    SURQmm    GW_Qmm    WYLDmm  SYLDt/ha ORGNkg/ha ORGPkg/haNSURQkg/ha SOLPkg/ha SEDPkg/ha LAT Q(mm)LATNO3kg/hGWNO3kg/haCHOLAmic/LCBODU mg/L DOXQ mg/L TNO3kg/ha   QTILEmm TVAPkg/ha
BIGSUB   1        0    1.87315E-01   576.600     0.000   117.423    87.662    96.092    11.112   162.762     0.000   458.652    10.673    24.982     3.052     0.005     0.009     2.445   295.756     0.427     0.000 .00000E+00 0.000E+00 0.000E+00 0.000E+00 0.000E+00 0.000E+00
BIGSUB   2        0    1.16673E+00   576.600     0.000   117.421    87.656    96.092    11.040   162.742     0.000   458.717    11.565    25.538     3.120     0.005     0.009     2.502   295.843     0.427     0.000 .00000E+00 0.000E+00 0.000E+00 0.000E+00 0.000E+00 0.000E+00
BIGSUB   3        0    1.40631E-01   576.600     0.000   117.431    87.026    96.098     6.486   166.310     0.000   463.257    14.474    26.141     3.194     0.007     0.011     2.570   296.888     0.415     0.000 .00000E+00 0.000E+00 0.000E+00 0.000E+00 0.000E+00 0.000E+00
BIGSUB   4        0    1.30883E-01   576.600     0.000   117.450    87.376    96.094     7.620   161.726     0.000   461.773    11.272    25.745     3.145     0.005     0.009     2.520   299.976     0.414     0.000 .00000E+00 0.000E+00 0.000E+00 0.000E+00 0.000E+00 0.000E+00
BIGSUB   5        0    1.61151E-01   576.600     0.000   117.424    85.435    96.120     5.889   187.622     0.275   465.994     9.380    17.217     2.109     0.018     0.023     1.699   278.045     0.397     0.000 .00000E+00 0.000E+00 0.000E+00 0.000E+00 0.000E+00 0.000E+00
BIGSUB   6        0    1.65871E-01   576.600     0.000   117.451    84.370    96.138     5.615   201.969     0.521   467.748     5.577    11.041     1.360     0.026     0.031     1.095   265.206     0.384     0.000 .00000E+00 0.000E+00 0.000E+00 0.000E+00 0.000E+00 0.000E+00
BIGSUB   7        0    1.55918E-01   576.600     0.000   117.395    87.672    96.090    11.825   162.782     0.309   458.287    10.029    24.528     2.996     0.005     0.009     2.398   295.047     0.427     0.000 .00000E+00 0.000E+00 0.000E+00 0.000E+00 0.000E+00 0.000E+00
BIGSUB   8        0    1.64948E-01   576.600     0.000   117.453    88.114    96.094    19.778   163.769     5.262   455.985     8.023    22.659     2.768     0.004     0.010     2.210   286.649     0.438     0.001 .00000E+00 0.000E+00 0.000E+00 0.000E+00 0.000E+00 0.000E+00
BIGSUB   9        0    1.48839E-01   576.600     0.000   117.404    87.366    96.091     7.579   161.733     0.000   461.834    11.973    26.173     3.197     0.005     0.009     2.564   300.030     0.413     0.000 .00000E+00 0.000E+00 0.000E+00 0.000E+00 0.000E+00 0.000E+00
BIGSUB  10        0    1.53661E-01   576.600     0.000   117.398    87.371    96.090     8.289   161.751     0.313   461.485    11.880    26.081     3.186     0.005     0.009     2.555   299.335     0.412     0.000 .00000E+00 0.000E+00 0.000E+00 0.000E+00 0.000E+00 0.000E+00
BIGSUB  11        0    1.62895E-01   576.600     0.000   117.397    87.364    96.090     6.890   161.722     0.000   462.484    15.062    27.838     3.400     0.005     0.008     2.735   300.698     0.418     0.000 .00000E+00 0.000E+00 0.000E+00 0.000E+00 0.000E+00 0.000E+00
BIGSUB  12        0    1.12004E+00   576.600     0.000   117.399    87.364    96.090     7.206   161.721     0.000   462.187    14.377    27.500     3.359     0.005     0.009     2.700   300.399     0.415     0.000 .00000E+00 0.000E+00 0.000E+00 0.000E+00 0.000E+00 0.000E+00
BIGSUB  13        0    1.11502E+00   576.600     0.000   117.366    87.358    96.088     6.720   161.729     0.000   462.658    17.874    29.137     3.558     0.005     0.008     2.868   300.867     0.418     0.000 .00000E+00 0.000E+00 0.000E+00 0.000E+00 0.000E+00 0.000E+00
BIGSUB  14        0    1.37655E-01   576.600     0.000   117.357    87.356    96.087     6.732   161.731     0.000   462.653    15.539    28.069     3.428     0.005     0.008     2.759   300.859     0.419     0.000 .00000E+00 0.000E+00 0.000E+00 0.000E+00 0.000E+00 0.000E+00
BIGSUB  15        0    1.48428E-01   576.600     0.000   117.338    87.555   103.208     9.535   152.383     1.798   461.305    20.348    28.903     3.529     0.005     0.008     2.844   307.003     0.436     0.000 .00000E+00 0.000E+00 0.000E+00 0.000E+00 0.000E+00 0.000E+00
BIGSUB  16        0    1.90906E-01   576.600     0.000   117.336    88.044   117.069    17.566   133.667     6.067   456.925    18.136    25.992     3.172     0.004     0.008     2.548   316.919     0.444     0.001 .00000E+00 0.000E+00 0.000E+00 0.000E+00 0.000E+00 0.000E+00
BIGSUB  17        0    1.53148E-01   576.600     0.000   117.427    87.370    96.092     7.153   161.715     0.000   462.224    13.215    26.882     3.283     0.005     0.009     2.637   300.442     0.416     0.000 .00000E+00 0.000E+00 0.000E+00 0.000E+00 0.000E+00 0.000E+00
BIGSUB  18        0    1.11290E-02   576.600     0.000   117.355    87.935    96.087    15.207   163.516     1.856   456.840     5.424    20.651     2.523     0.005     0.011     2.000   291.257     0.441     0.000 .00000E+00 0.000E+00 0.000E+00 0.000E+00 0.000E+00 0.000E+00
BIGSUB  19        0    1.50275E-01   576.600     0.000   117.371    87.364    96.088     7.292   161.703     0.343   462.436    16.738    28.586     3.491     0.005     0.008     2.812   300.314     0.418     0.000 .00000E+00 0.000E+00 0.000E+00 0.000E+00 0.000E+00 0.000E+00
BIGSUB  20        0    1.27190E-01   576.600     0.000   117.361    87.356    96.087     6.954   161.730     0.000   462.442    13.128    26.834     3.278     0.005     0.009     2.632   300.647     0.419     0.000 .00000E+00 0.000E+00 0.000E+00 0.000E+00 0.000E+00 0.000E+00
BIGSUB  21        0    1.13749E+00   576.600     0.000   117.404    87.778    96.091    12.751   163.077     0.000   457.185    10.548    24.812     3.031     0.004     0.009     2.428   293.943     0.432     0.000 .00000E+00 0.000E+00 0.000E+00 0.000E+00 0.000E+00 0.000E+00
BIGSUB  22        0    1.16827E-01   576.600     0.000   117.333    87.350    96.085     6.999   161.737     0.000   462.414    12.073    26.238     3.205     0.005     0.009     2.571   300.613     0.419     0.000 .00000E+00 0.000E+00 0.000E+00 0.000E+00 0.000E+00 0.000E+00
BIGSUB  23        0    1.33038E-01   576.600     0.000   117.372    87.705    96.088    13.545   162.859     1.044   457.437     9.231    23.886     2.918     0.005     0.010     2.333   293.349     0.427     0.000 .00000E+00 0.000E+00 0.000E+00 0.000E+00 0.000E+00 0.000E+00
BIGSUB  24        0    1.12518E-01   576.600     0.000   117.357    87.410    96.087     8.320   161.934     0.000   461.186     9.641    24.596     3.005     0.005     0.009     2.403   299.170     0.417     0.000 .00000E+00 0.000E+00 0.000E+00 0.000E+00 0.000E+00 0.000E+00
BIGSUB  25        0    1.22060E-01   576.600     0.000   117.350    87.440    96.086     8.659   162.042     0.000   460.887    10.143    24.893     3.041     0.005     0.009     2.434   298.756     0.418     0.000 .00000E+00 0.000E+00 0.000E+00 0.000E+00 0.000E+00 0.000E+00
BIGSUB  26        0    1.22470E-01   576.600     0.000   117.343    87.353    96.086     6.780   161.734     0.000   462.614    14.218    27.412     3.348     0.005     0.009     2.691   300.817     0.419     0.000 .00000E+00 0.000E+00 0.000E+00 0.000E+00 0.000E+00 0.000E+00
BIGSUB  27        0    1.31089E-01   576.600     0.000   117.323    87.418    96.084     8.490   161.995     0.000   461.051    10.663    25.252     3.085     0.005     0.009     2.470   298.971     0.417     0.000 .00000E+00 0.000E+00 0.000E+00 0.000E+00 0.000E+00 0.000E+00
BIGSUB  28        0    1.92300E-03   576.600     0.000   117.307    88.205    96.083    20.988   163.985     5.268   455.054     4.429    19.357     2.365     0.004     0.012     1.869   285.479     0.445     0.000 .00000E+00 0.000E+00 0.000E+00 0.000E+00 0.000E+00 0.000E+00
BIGSUB  29        0    1.82595E-01   576.600     0.000   117.317    87.396    96.852    11.014   160.956     2.384   460.978    18.445    29.161     3.561     0.005     0.008     2.871   297.480     0.414     0.001 .00000E+00 0.000E+00 0.000E+00 0.000E+00 0.000E+00 0.000E+00
BIGSUB  30        0    1.58480E-02   576.600     0.000   117.301    87.683   100.920    32.403   158.825    13.640   451.988     9.968    23.604     2.883     0.005     0.011     2.307   278.902     0.392     0.007 .00000E+00 0.000E+00 0.000E+00 0.000E+00 0.000E+00 0.000E+00
BIGSUB  31        0    1.27600E-01   576.600     0.000   117.302    88.058   123.151    76.205   151.683    36.649   433.233     9.874    19.516     2.383     0.006     0.016     1.901   243.399     0.335     0.014 .00000E+00 0.000E+00 0.000E+00 0.000E+00 0.000E+00 0.000E+00
BIGSUB   1        0    2.87315E-01   144.700     0.000   106.958    68.618    47.490     3.848    42.249     0.000   130.828     5.359     6.761     0.826     0.000     0.002     0.663    88.401     0.121     0.000 .00000E+00 0.000E+00 0.000E+00 0.000E+00 0.000E+00 0.000E+00
BIGSUB   2        0    2.16673E+00   144.700     0.000   106.954    68.615    47.493     3.828    42.249     0.000   130.850     5.806     6.811     0.832     0.000     0.001     0.669    88.424     0.121     0.000 .00000E+00 0.000E+00 0.000E+00 0.000E+00 0.000E+00 0.000E+00
BIGSUB   3        0    2.40631E-01   144.700     0.000   106.976    67.752    48.310     2.456    43.303     0.000   132.214     7.310     6.615     0.808     0.000     0.002     0.652    88.822     0.121     0.000 .00000E+00 0.000E+00 0.000E+00 0.000E+00 0.000E+00 0.000E+00
BIGSUB   4        0    2.30883E-01   144.700     0.000   107.020    68.660    47.456     2.846    42.247     0.000   131.882     5.692     6.955     0.850     0.000     0.002     0.682    89.528     0.120     0.000 .00000E+00 0.000E+00 0.000E+00 0.000E+00 0.000E+00 0.000E+00
BIGSUB   5        0    2.61151E-01   144.700     0.000   106.961    63.653    52.184     2.299    48.194     0.300   132.231     4.754     4.480     0.550     0.001     0.004     0.445    83.656     0.111     0.000 .00000E+00 0.000E+00 0.000E+00 0.000E+00 0.000E+00 0.000E+00
BIGSUB   6        0    2.65871E-01   144.700     0.000   107.023    60.937    54.758     2.227    51.516     0.569   132.287     2.844     3.049     0.377     0.002     0.006     0.306    80.125     0.104     0.000 .00000E+00 0.000E+00 0.000E+00 0.000E+00 0.000E+00 0.000E+00
BIGSUB   7        0    2.55918E-01   144.700     0.000   106.896    68.561    47.539     4.034    42.280     0.337   131.006     5.033     6.705     0.819     0.000     0.002     0.657    88.196     0.121     0.000 .00000E+00 0.000E+00 0.000E+00 0.000E+00 0.000E+00 0.000E+00
BIGSUB   8        0    2.64948E-01   144.700     0.000   107.026    68.611    47.507     6.204    42.275     9.982   138.366     3.983     6.354     0.776     0.000     0.002     0.620    85.745     0.118     0.001 .00000E+00 0.000E+00 0.000E+00 0.000E+00 0.000E+00 0.000E+00
BIGSUB   9        0    2.48839E-01   144.700     0.000   106.915    68.589    47.513     2.833    42.250     0.000   131.907     6.044     6.990     0.854     0.000     0.001     0.686    89.551     0.120     0.000 .00000E+00 0.000E+00 0.000E+00 0.000E+00 0.000E+00 0.000E+00
BIGSUB  10        0    2.53661E-01   144.700     0.000   106.901    68.564    47.536     3.024    42.251     0.342   132.054     5.997     6.974     0.852     0.000     0.001     0.685    89.339     0.120     0.000 .00000E+00 0.000E+00 0.000E+00 0.000E+00 0.000E+00 0.000E+00
BIGSUB  11        0    2.62895E-01   144.700     0.000   106.898    68.578    47.522     2.581    42.250     0.000   132.186     7.604     7.079     0.865     0.000     0.001     0.697    89.840     0.122     0.000 .00000E+00 0.000E+00 0.000E+00 0.000E+00 0.000E+00 0.000E+00
BIGSUB  12        0    2.12004E+00   144.700     0.000   106.904    68.582    47.519     2.699    42.250     0.000   132.055     7.255     7.068     0.863     0.000     0.001     0.696    89.704     0.121     0.000 .00000E+00 0.000E+00 0.000E+00 0.000E+00 0.000E+00 0.000E+00
BIGSUB  13        0    2.11502E+00   144.700     0.000   106.829    68.532    47.559     2.517    42.252     0.000   132.264     9.022     7.095     0.866     0.000     0.001     0.701    89.918     0.123     0.000 .00000E+00 0.000E+00 0.000E+00 0.000E+00 0.000E+00 0.000E+00
BIGSUB  14        0    2.37655E-01   144.700     0.000   106.808    68.518    47.570     2.521    42.253     0.000   132.261     7.844     7.086     0.865     0.000     0.001     0.698    89.915     0.123     0.000 .00000E+00 0.000E+00 0.000E+00 0.000E+00 0.000E+00 0.000E+00
BIGSUB  15        0    2.48428E-01   144.700     0.000   106.765    68.694    54.503     3.220    40.015     2.298   134.195    10.292     6.761     0.825     0.000     0.001     0.667    91.726     0.127     0.001 .00000E+00 0.000E+00 0.000E+00 0.000E+00 0.000E+00 0.000E+00
BIGSUB  16        0    2.90906E-01   144.700     0.000   106.760    69.033    68.025     5.385    35.593     7.476   137.823     9.219     6.317     0.771     0.000     0.001     0.619    94.430     0.126     0.002 .00000E+00 0.000E+00 0.000E+00 0.000E+00 0.000E+00 0.000E+00
BIGSUB  17        0    2.53148E-01   144.700     0.000   106.968    68.625    47.484     2.678    42.249     0.000   132.071     6.672     7.039     0.860     0.000     0.001     0.692    89.722     0.121     0.000 .00000E+00 0.000E+00 0.000E+00 0.000E+00 0.000E+00 0.000E+00
BIGSUB  18        0    2.11290E-02   144.700     0.000   106.804    68.514    47.574     4.990    42.253     7.082   136.722     2.704     6.091     0.744     0.000     0.002     0.590    87.124     0.121     0.001 .00000E+00 0.000E+00 0.000E+00 0.000E+00 0.000E+00 0.000E+00
BIGSUB  19        0    2.50275E-01   144.700     0.000   106.841    68.523    47.569     2.656    42.284     0.375   132.527     8.450     7.080     0.865     0.000     0.001     0.699    89.761     0.123     0.000 .00000E+00 0.000E+00 0.000E+00 0.000E+00 0.000E+00 0.000E+00
BIGSUB  20        0    2.27190E-01   144.700     0.000   106.817    68.524    47.565     2.605    42.252     0.000   132.168     6.628     7.036     0.859     0.000     0.001     0.692    89.819     0.122     0.000 .00000E+00 0.000E+00 0.000E+00 0.000E+00 0.000E+00 0.000E+00
BIGSUB  21        0    2.13749E+00   144.700     0.000   106.916    68.590    47.513     4.307    42.250     0.000   130.348     5.279     6.712     0.820     0.000     0.002     0.658    87.886     0.121     0.000 .00000E+00 0.000E+00 0.000E+00 0.000E+00 0.000E+00 0.000E+00
BIGSUB  22        0    2.16827E-01   144.700     0.000   106.752    68.481    47.600     2.622    42.254     0.000   132.156     6.096     6.997     0.855     0.000     0.001     0.687    89.805     0.122     0.000 .00000E+00 0.000E+00 0.000E+00 0.000E+00 0.000E+00 0.000E+00
BIGSUB  23        0    2.33038E-01   144.700     0.000   106.842    68.490    47.603     4.483    42.290     1.139   131.357     4.631     6.611     0.808     0.000     0.002     0.647    87.696     0.121     0.000 .00000E+00 0.000E+00 0.000E+00 0.000E+00 0.000E+00 0.000E+00
BIGSUB  24        0    2.12518E-01   144.700     0.000   106.809    68.518    47.570     3.055    42.253     0.000   131.681     4.864     6.817     0.833     0.000     0.002     0.667    89.308     0.121     0.000 .00000E+00 0.000E+00 0.000E+00 0.000E+00 0.000E+00 0.000E+00
BIGSUB  25        0    2.22060E-01   144.700     0.000   106.793    68.508    47.578     3.152    42.253     0.000   131.579     5.114     6.836     0.835     0.000     0.002     0.669    89.199     0.121     0.000 .00000E+00 0.000E+00 0.000E+00 0.000E+00 0.000E+00 0.000E+00
BIGSUB  26        0    2.22470E-01   144.700     0.000   106.775    68.496    47.587     2.540    42.253     0.000   132.244     7.178     7.064     0.863     0.000     0.001     0.695    89.896     0.123     0.000 .00000E+00 0.000E+00 0.000E+00 0.000E+00 0.000E+00 0.000E+00
BIGSUB  27        0    2.31089E-01   144.700     0.000   106.731    68.467    47.611     3.104    42.255     0.000   131.636     5.377     6.878     0.840     0.000     0.002     0.674    89.258     0.120     0.000 .00000E+00 0.000E+00 0.000E+00 0.000E+00 0.000E+00 0.000E+00
BIGSUB  28        0    2.92300E-03   144.700     0.000   106.694    68.440    47.634     6.563    42.256    10.621   138.619     2.194     5.783     0.707     0.000     0.002     0.559    85.358     0.117     0.001 .00000E+00 0.000E+00 0.000E+00 0.000E+00 0.000E+00 0.000E+00
BIGSUB  29        0    2.82595E-01   144.700     0.000   106.717    68.462    48.381     3.588    42.065     2.598   133.836     9.311     7.023     0.858     0.000     0.001     0.694    88.980     0.122     0.001 .00000E+00 0.000E+00 0.000E+00 0.000E+00 0.000E+00 0.000E+00
BIGSUB  30        0    2.58480E-02   144.700     0.000   106.679    68.532    52.356     9.129    41.592    15.074   140.810     5.031     6.441     0.787     0.000     0.002     0.630    83.465     0.114     0.007 .00000E+00 0.000E+00 0.000E+00 0.000E+00 0.000E+00 0.000E+00
BIGSUB  31        0    2.27600E-01   144.700     0.000   106.681    66.813    76.202    20.670    39.987    41.234   156.331     4.977     5.195     0.634     0.000     0.003     0.505    73.480     0.095     0.017 .00000E+00 0.000E+00 0.000E+00 0.000E+00 0.000E+00 0.000E+00
BIGSUB   1        0    3.87315E-01    93.800     0.000   115.571    83.734    18.618     0.000     0.000     0.000    39.134     0.000     0.000     0.000     0.000     0.000     0.000    38.922     0.000     0.000 .00000E+00 0.000E+00 0.000E+00 0.000E+00 0.000E+00 0.000E+00
BIGSUB   2        0    3.16673E+00    93.800     0.000   115.566    83.723    18.603     0.000     0.000     0.000    39.161     0.000     0.000     0.000     0.000     0.000     0.000    38.951     0.000     0.000 .00000E+00 0.000E+00 0.000E+00 0.000E+00 0.000E+00 0.000E+00
BIGSUB   3        0    3.40631E-01    93.800     0.000   115.594    83.200    18.572     0.000     0.014     0.000    40.433     0.000     0.000     0.000     0.000     0.000     0.000    40.307     0.000     0.000 .00000E+00 0.000E+00 0.000E+00 0.000E+00 0.000E+00 0.000E+00
BIGSUB   4        0    3.30883E-01    93.800     0.000   115.648    83.276    17.653     0.000     0.000     0.000    40.444     0.000     0.000     0.000     0.000     0.000     0.000    40.311     0.000     0.000 .00000E+00 0.000E+00 0.000E+00 0.000E+00 0.000E+00 0.000E+00
BIGSUB   5        0    3.61151E-01    93.800     0.000   115.575    82.819    22.876     0.000     0.082     0.230    40.604     0.000     0.000     0.000     0.000     0.000     0.000    40.190     0.001     0.000 .00000E+00 0.000E+00 0.000E+00 0.000E+00 0.000E+00 0.000E+00
BIGSUB   6        0    3.65871E-01    93.800     0.000   115.651    82.594    25.735     0.000     0.125     0.436    40.746     0.000     0.000     0.000     0.000     0.000     0.000    40.088     0.001     0.000 .00000E+00 0.000E+00 0.000E+00 0.000E+00 0.000E+00 0.000E+00
BIGSUB   7        0    3.55918E-01    93.800     0.000   115.496    83.728    18.791     0.000     0.000     0.258    39.290     0.000     0.000     0.000     0.000     0.000     0.000    38.803     0.000     0.000 .00000E+00 0.000E+00 0.000E+00 0.000E+00 0.000E+00 0.000E+00
BIGSUB   8        0    3.64948E-01    93.800     0.000   115.655    84.762    20.216     0.000     0.000     5.988    42.716     0.000     0.000     0.000     0.000     0.000     0.000    36.314     0.001     0.000 .00000E+00 0.000E+00 0.000E+00 0.000E+00 0.000E+00 0.000E+00
BIGSUB   9        0    3.48839E-01    93.800     0.000   115.519    83.275    17.694     0.000     0.000     0.000    40.460     0.000     0.000     0.000     0.000     0.000     0.000    40.328     0.000     0.000 .00000E+00 0.000E+00 0.000E+00 0.000E+00 0.000E+00 0.000E+00
BIGSUB  10        0    3.53661E-01    93.800     0.000   115.502    83.262    17.803     0.000     0.000     0.262    40.666     0.000     0.000     0.000     0.000     0.000     0.000    40.254     0.000     0.000 .00000E+00 0.000E+00 0.000E+00 0.000E+00 0.000E+00 0.000E+00
BIGSUB  11        0    3.62895E-01    93.800     0.000   115.499    83.268    17.707     0.000     0.000     0.000    40.451     0.000     0.000     0.000     0.000     0.000     0.000    40.330     0.000     0.000 .00000E+00 0.000E+00 0.000E+00 0.000E+00 0.000E+00 0.000E+00
BIGSUB  12        0    3.12004E+00    93.800     0.000   115.506    83.270    17.702     0.000     0.000     0.000    40.455     0.000     0.000     0.000     0.000     0.000     0.000    40.330     0.000     0.000 .00000E+00 0.000E+00 0.000E+00 0.000E+00 0.000E+00 0.000E+00
BIGSUB  13        0    3.11502E+00    93.800     0.000   115.414    83.242    17.759     0.000     0.000     0.000    40.459     0.000     0.000     0.000     0.000     0.000     0.000    40.341     0.000     0.000 .00000E+00 0.000E+00 0.000E+00 0.000E+00 0.000E+00 0.000E+00
BIGSUB  14        0    3.37655E-01    93.800     0.000   115.388    83.235    17.774     0.000     0.000     0.000    40.462     0.000     0.000     0.000     0.000     0.000     0.000    40.345     0.000     0.000 .00000E+00 0.000E+00 0.000E+00 0.000E+00 0.000E+00 0.000E+00
BIGSUB  15        0    3.48428E-01    93.800     0.000   115.336    83.724    24.838     0.000     0.001     1.299    41.208     0.000     0.000     0.000     0.000     0.000     0.000    39.724     0.017     0.000 .00000E+00 0.000E+00 0.000E+00 0.000E+00 0.000E+00 0.000E+00
BIGSUB  16        0    3.90906E-01    93.800     0.000   115.330    84.784    38.724     0.000     0.001     4.582    43.250     0.000     0.000     0.000     0.000     0.000     0.000    38.300     0.016     0.001 .00000E+00 0.000E+00 0.000E+00 0.000E+00 0.000E+00 0.000E+00
BIGSUB  17        0    3.53148E-01    93.800     0.000   115.584    83.282    17.667     0.000     0.000     0.000    40.444     0.000     0.000     0.000     0.000     0.000     0.000    40.319     0.000     0.000 .00000E+00 0.000E+00 0.000E+00 0.000E+00 0.000E+00 0.000E+00
BIGSUB  18        0    3.11290E-02    93.800     0.000   115.383    84.310    19.591     0.000     0.000     3.889    41.652     0.000     0.000     0.000     0.000     0.000     0.000    37.457     0.001     0.000 .00000E+00 0.000E+00 0.000E+00 0.000E+00 0.000E+00 0.000E+00
BIGSUB  19        0    3.50275E-01    93.800     0.000   115.429    83.239    17.856     0.000     0.000     0.287    40.676     0.000     0.000     0.000     0.000     0.000     0.000    40.257     0.000     0.000 .00000E+00 0.000E+00 0.000E+00 0.000E+00 0.000E+00 0.000E+00
BIGSUB  20        0    3.27190E-01    93.800     0.000   115.399    83.238    17.768     0.000     0.000     0.000    40.465     0.000     0.000     0.000     0.000     0.000     0.000    40.343     0.000     0.000 .00000E+00 0.000E+00 0.000E+00 0.000E+00 0.000E+00 0.000E+00
BIGSUB  21        0    3.13749E+00    93.800     0.000   115.520    83.954    19.034     0.000     0.000     0.000    38.559     0.000     0.000     0.000     0.000     0.000     0.000    38.310     0.000     0.000 .00000E+00 0.000E+00 0.000E+00 0.000E+00 0.000E+00 0.000E+00
BIGSUB  22        0    3.16827E-01    93.800     0.000   115.320    83.219    17.811     0.000     0.000     0.000    40.476     0.000     0.000     0.000     0.000     0.000     0.000    40.354     0.000     0.000 .00000E+00 0.000E+00 0.000E+00 0.000E+00 0.000E+00 0.000E+00
BIGSUB  23        0    3.33038E-01    93.800     0.000   115.430    83.750    19.139     0.000     0.000     0.873    39.642     0.000     0.000     0.000     0.000     0.000     0.000    38.498     0.000     0.000 .00000E+00 0.000E+00 0.000E+00 0.000E+00 0.000E+00 0.000E+00
BIGSUB  24        0    3.12518E-01    93.800     0.000   115.389    83.308    17.944     0.000     0.000     0.000    40.250     0.000     0.000     0.000     0.000     0.000     0.000    40.102     0.000     0.000 .00000E+00 0.000E+00 0.000E+00 0.000E+00 0.000E+00 0.000E+00
BIGSUB  25        0    3.22060E-01    93.800     0.000   115.370    83.349    18.056     0.000     0.000     0.000    40.113     0.000     0.000     0.000     0.000     0.000     0.000    39.957     0.000     0.000 .00000E+00 0.000E+00 0.000E+00 0.000E+00 0.000E+00 0.000E+00
BIGSUB  26        0    3.22470E-01    93.800     0.000   115.349    83.225    17.796     0.000     0.000     0.000    40.468     0.000     0.000     0.000     0.000     0.000     0.000    40.350     0.000     0.000 .00000E+00 0.000E+00 0.000E+00 0.000E+00 0.000E+00 0.000E+00
BIGSUB  27        0    3.31089E-01    93.800     0.000   115.294    83.310    18.044     0.000     0.000     0.000    40.193     0.000     0.000     0.000     0.000     0.000     0.000    40.041     0.000     0.000 .00000E+00 0.000E+00 0.000E+00 0.000E+00 0.000E+00 0.000E+00
BIGSUB  28        0    3.92300E-03    93.800     0.000   115.249    85.251    20.513     0.000     0.000     6.333    42.425     0.000     0.000     0.000     0.000     0.000     0.000    35.655     0.001     0.000 .00000E+00 0.000E+00 0.000E+00 0.000E+00 0.000E+00 0.000E+00
BIGSUB  29        0    3.82595E-01    93.800     0.000   115.277    83.282    19.008     0.000     0.001     1.997    42.094     0.000     0.000     0.000     0.000     0.000     0.000    39.873     0.000     0.000 .00000E+00 0.000E+00 0.000E+00 0.000E+00 0.000E+00 0.000E+00
BIGSUB  30        0    3.58480E-02    93.800     0.000   115.231    83.838    25.052     0.000     0.013    11.391    49.388     0.000     0.000     0.000     0.000     0.000     0.000    37.242     0.000     0.003 .00000E+00 0.000E+00 0.000E+00 0.000E+00 0.000E+00 0.000E+00
BIGSUB  31        0    3.27600E-01    93.800     0.000   115.233    83.929    55.368     0.019     0.948    31.917    64.332     0.012     0.026     0.003     0.000     0.000     0.003    29.700     0.000     0.007 .00000E+00 0.000E+00 0.000E+00 0.000E+00 0.000E+00 0.000E+00
BIGSUB   1        0    4.87315E-01   238.900     0.000   112.420    57.156    47.638     0.000    29.290     0.000   137.703     0.015     0.026     0.003     0.001     0.001     0.002   108.237     0.028     0.000 .00000E+00 0.000E+00 0.000E+00 0.000E+00 0.000E+00 0.000E+00
BIGSUB   2        0    4.16673E+00   238.900     0.000   112.419    57.130    47.592     0.000    29.266     0.000   137.753     0.016     0.026     0.003     0.001     0.001     0.002   108.313     0.028     0.000 .00000E+00 0.000E+00 0.000E+00 0.000E+00 0.000E+00 0.000E+00
BIGSUB   3        0    4.40631E-01   238.900     0.000   112.425    56.830    45.086     0.000    29.469     0.000   140.438     0.020     0.032     0.004     0.001     0.001     0.003   110.874     0.025     0.000 .00000E+00 0.000E+00 0.000E+00 0.000E+00 0.000E+00 0.000E+00
BIGSUB   4        0    4.30883E-01   238.900     0.000   112.435    55.800    45.322     0.000    27.954     0.000   140.100     0.014     0.024     0.003     0.001     0.001     0.002   112.034     0.027     0.000 .00000E+00 0.000E+00 0.000E+00 0.000E+00 0.000E+00 0.000E+00
BIGSUB   5        0    4.61151E-01   238.900     0.000   112.421    61.647    44.161     0.092    36.549     0.079   141.960     0.026     0.070     0.009     0.001     0.002     0.007   105.246     0.017     0.000 .00000E+00 0.000E+00 0.000E+00 0.000E+00 0.000E+00 0.000E+00
BIGSUB   6        0    4.65871E-01   238.900     0.000   112.436    64.867    43.535     0.176    41.287     0.153   142.944     0.031     0.098     0.013     0.000     0.003     0.011   101.422     0.012     0.000 .00000E+00 0.000E+00 0.000E+00 0.000E+00 0.000E+00 0.000E+00
BIGSUB   7        0    4.55918E-01   238.900     0.000   112.406    57.283    47.828     0.104    29.395     0.091   137.559     0.014     0.025     0.003     0.001     0.001     0.002   107.883     0.028     0.000 .00000E+00 0.000E+00 0.000E+00 0.000E+00 0.000E+00 0.000E+00
BIGSUB   8        0    4.64948E-01   238.900     0.000   112.437    59.557    51.861     0.351    31.440     0.310   133.384     0.013     0.027     0.003     0.001     0.001     0.003   101.295     0.029     0.000 .00000E+00 0.000E+00 0.000E+00 0.000E+00 0.000E+00 0.000E+00
BIGSUB   9        0    4.48839E-01   238.900     0.000   112.410    55.813    45.334     0.000    27.969     0.000   140.113     0.015     0.025     0.003     0.001     0.001     0.002   112.032     0.027     0.000 .00000E+00 0.000E+00 0.000E+00 0.000E+00 0.000E+00 0.000E+00
BIGSUB  10        0    4.53661E-01   238.900     0.000   112.407    55.866    45.445     0.105    28.063     0.090   140.087     0.015     0.024     0.003     0.001     0.001     0.002   111.808     0.027     0.000 .00000E+00 0.000E+00 0.000E+00 0.000E+00 0.000E+00 0.000E+00
BIGSUB  11        0    4.62895E-01   238.900     0.000   112.406    55.823    45.318     0.000    27.972     0.000   140.116     0.019     0.026     0.003     0.001     0.001     0.002   112.043     0.027     0.000 .00000E+00 0.000E+00 0.000E+00 0.000E+00 0.000E+00 0.000E+00
BIGSUB  12        0    4.12004E+00   238.900     0.000   112.408    55.819    45.317     0.000    27.971     0.000   140.120     0.018     0.026     0.003     0.001     0.001     0.002   112.043     0.027     0.000 .00000E+00 0.000E+00 0.000E+00 0.000E+00 0.000E+00 0.000E+00
BIGSUB  13        0    4.11502E+00   238.900     0.000   112.389    55.857    45.329     0.000    27.982     0.000   140.120     0.023     0.026     0.003     0.001     0.000     0.002   112.039     0.027     0.000 .00000E+00 0.000E+00 0.000E+00 0.000E+00 0.000E+00 0.000E+00
BIGSUB  14        0    4.37655E-01   238.900     0.000   112.384    55.866    45.333     0.000    27.985     0.000   140.122     0.020     0.026     0.003     0.001     0.001     0.002   112.038     0.027     0.000 .00000E+00 0.000E+00 0.000E+00 0.000E+00 0.000E+00 0.000E+00
BIGSUB  15        0    4.48428E-01   238.900     0.000   112.374    59.017    51.446     0.049    26.630     0.208   138.138     0.026     0.026     0.003     0.001     0.001     0.002   111.148     0.027     0.000 .00000E+00 0.000E+00 0.000E+00 0.000E+00 0.000E+00 0.000E+00
BIGSUB  16        0    4.90906E-01   238.900     0.000   112.373    65.192    63.988     0.129    23.938     0.743   133.868     0.023     0.023     0.003     0.001     0.001     0.002   108.885     0.027     0.000 .00000E+00 0.000E+00 0.000E+00 0.000E+00 0.000E+00 0.000E+00
BIGSUB  17        0    4.53148E-01   238.900     0.000   112.423    55.800    45.306     0.000    27.961     0.000   140.113     0.017     0.025     0.003     0.001     0.001     0.002   112.046     0.027     0.000 .00000E+00 0.000E+00 0.000E+00 0.000E+00 0.000E+00 0.000E+00
BIGSUB  18        0    4.11290E-02   238.900     0.000   112.383    58.674    50.133     0.000    30.551     0.000   135.058     0.008     0.023     0.003     0.001     0.001     0.002   104.255     0.029     0.000 .00000E+00 0.000E+00 0.000E+00 0.000E+00 0.000E+00 0.000E+00
BIGSUB  19        0    4.50275E-01   238.900     0.000   112.392    55.900    45.427     0.116    28.035     0.101   140.058     0.021     0.026     0.003     0.001     0.001     0.002   111.811     0.027     0.000 .00000E+00 0.000E+00 0.000E+00 0.000E+00 0.000E+00 0.000E+00
BIGSUB  20        0    4.27190E-01   238.900     0.000   112.386    55.862    45.331     0.000    27.984     0.000   140.124     0.017     0.025     0.003     0.001     0.001     0.002   112.039     0.027     0.000 .00000E+00 0.000E+00 0.000E+00 0.000E+00 0.000E+00 0.000E+00
BIGSUB  21        0    4.13749E+00   238.900     0.000   112.410    57.789    48.668     0.000    29.829     0.000   136.612     0.015     0.027     0.003     0.001     0.001     0.002   106.577     0.028     0.000 .00000E+00 0.000E+00 0.000E+00 0.000E+00 0.000E+00 0.000E+00
BIGSUB  22        0    4.16827E-01   238.900     0.000   112.371    55.889    45.342     0.000    27.993     0.000   140.131     0.015     0.025     0.003     0.001     0.001     0.002   112.035     0.027     0.000 .00000E+00 0.000E+00 0.000E+00 0.000E+00 0.000E+00 0.000E+00
BIGSUB  23        0    4.33038E-01   238.900     0.000   112.393    57.545    48.276     0.354    29.699     0.307   137.253     0.013     0.025     0.003     0.001     0.001     0.002   107.024     0.028     0.000 .00000E+00 0.000E+00 0.000E+00 0.000E+00 0.000E+00 0.000E+00
BIGSUB  24        0    4.12518E-01   238.900     0.000   112.384    56.095    45.769     0.000    28.229     0.000   139.704     0.013     0.023     0.003     0.001     0.001     0.002   111.350     0.027     0.000 .00000E+00 0.000E+00 0.000E+00 0.000E+00 0.000E+00 0.000E+00
BIGSUB  25        0    4.22060E-01   238.900     0.000   112.381    56.243    46.012     0.000    28.376     0.000   139.456     0.013     0.024     0.003     0.001     0.001     0.002   110.949     0.027     0.000 .00000E+00 0.000E+00 0.000E+00 0.000E+00 0.000E+00 0.000E+00
BIGSUB  26        0    4.22470E-01   238.900     0.000   112.376    55.880    45.338     0.000    27.989     0.000   140.126     0.018     0.025     0.003     0.001     0.001     0.002   112.036     0.027     0.000 .00000E+00 0.000E+00 0.000E+00 0.000E+00 0.000E+00 0.000E+00
BIGSUB  27        0    4.31089E-01   238.900     0.000   112.366    56.196    45.901     0.000    28.312     0.000   139.587     0.014     0.024     0.003     0.001     0.001     0.002   111.147     0.027     0.000 .00000E+00 0.000E+00 0.000E+00 0.000E+00 0.000E+00 0.000E+00
BIGSUB  28        0    4.92300E-03   238.900     0.000   112.357    60.307    53.327     0.000    31.718     0.109   131.955     0.008     0.023     0.003     0.001     0.001     0.002    99.769     0.029     0.000 .00000E+00 0.000E+00 0.000E+00 0.000E+00 0.000E+00 0.000E+00
BIGSUB  29        0    4.82595E-01   238.900     0.000   112.362    56.302    46.723     0.656    28.258     0.778   139.893     0.024     0.026     0.003     0.001     0.001     0.002   110.673     0.026     0.000 .00000E+00 0.000E+00 0.000E+00 0.000E+00 0.000E+00 0.000E+00
BIGSUB  30        0    4.58480E-02   238.900     0.000   112.353    58.540    54.205     3.108    30.160     4.238   138.382     0.013     0.022     0.003     0.001     0.002     0.002   103.384     0.025     0.000 .00000E+00 0.000E+00 0.000E+00 0.000E+00 0.000E+00 0.000E+00
BIGSUB  31        0    4.27600E-01   238.900     0.000   112.354    68.194    86.525     4.291    39.598     8.884   132.559     0.100     0.201     0.025     0.001     0.004     0.020    82.652     0.020     0.001 .00000E+00 0.000E+00 0.000E+00 0.000E+00 0.000E+00 0.000E+00
BIGSUB   1        0    5.87315E-01   134.700     0.000   133.542    73.402    44.692     0.000     1.658     0.000    78.841     0.001     0.002     0.000     0.000     0.000     0.000    77.039     0.054     0.000 .00000E+00 0.000E+00 0.000E+00 0.000E+00 0.000E+00 0.000E+00
BIGSUB   2        0    5.16673E+00   134.700     0.000   133.544    73.389    44.624     0.000     1.653     0.000    78.881     0.001     0.002     0.000     0.000     0.000     0.000    77.085     0.054     0.000 .00000E+00 0.000E+00 0.000E+00 0.000E+00 0.000E+00 0.000E+00
BIGSUB   3        0    5.40631E-01   134.700     0.000   133.533    74.261    39.958     0.000     1.458     0.000    80.102     0.001     0.002     0.000     0.000     0.000     0.000    78.566     0.049     0.000 .00000E+00 0.000E+00 0.000E+00 0.000E+00 0.000E+00 0.000E+00
BIGSUB   4        0    5.30883E-01   134.700     0.000   133.513    72.706    41.296     0.000     1.393     0.000    80.800     0.001     0.001     0.000     0.000     0.000     0.000    79.314     0.053     0.000 .00000E+00 0.000E+00 0.000E+00 0.000E+00 0.000E+00 0.000E+00
BIGSUB   5        0    5.61151E-01   134.700     0.000   133.540    81.475    34.033     0.065     1.786     0.073    76.765     0.001     0.003     0.000     0.000     0.000     0.000    74.834     0.032     0.000 .00000E+00 0.000E+00 0.000E+00 0.000E+00 0.000E+00 0.000E+00
BIGSUB   6        0    5.65871E-01   134.700     0.000   133.512    86.350    30.033     0.125     2.043     0.139    74.539     0.001     0.004     0.000     0.000     0.000     0.000    72.288     0.021     0.000 .00000E+00 0.000E+00 0.000E+00 0.000E+00 0.000E+00 0.000E+00
BIGSUB   7        0    5.55918E-01   134.700     0.000   133.570    73.458    44.921     0.074     1.724     0.082    78.769     0.001     0.002     0.000     0.000     0.000     0.000    76.808     0.054     0.000 .00000E+00 0.000E+00 0.000E+00 0.000E+00 0.000E+00 0.000E+00
BIGSUB   8        0    5.64948E-01   134.700     0.000   133.510    74.696    50.743     0.250     2.221     0.277    75.328     0.001     0.002     0.000     0.000     0.000     0.000    72.552     0.053     0.000 .00000E+00 0.000E+00 0.000E+00 0.000E+00 0.000E+00 0.000E+00
BIGSUB   9        0    5.48839E-01   134.700     0.000   133.561    72.711    41.292     0.000     1.394     0.000    80.812     0.001     0.001     0.000     0.000     0.000     0.000    79.326     0.053     0.000 .00000E+00 0.000E+00 0.000E+00 0.000E+00 0.000E+00 0.000E+00
BIGSUB  10        0    5.53661E-01   134.700     0.000   133.567    72.741    41.417     0.074     1.412     0.083    80.759     0.001     0.001     0.000     0.000     0.000     0.000    79.161     0.053     0.000 .00000E+00 0.000E+00 0.000E+00 0.000E+00 0.000E+00 0.000E+00
BIGSUB  11        0    5.62895E-01   134.700     0.000   133.568    72.713    41.261     0.000     1.392     0.000    80.823     0.001     0.001     0.000     0.000     0.000     0.000    79.347     0.053     0.000 .00000E+00 0.000E+00 0.000E+00 0.000E+00 0.000E+00 0.000E+00
BIGSUB  12        0    5.12004E+00   134.700     0.000   133.566    72.712    41.261     0.000     1.392     0.000    80.827     0.001     0.001     0.000     0.000     0.000     0.000    79.348     0.053     0.000 .00000E+00 0.000E+00 0.000E+00 0.000E+00 0.000E+00 0.000E+00
BIGSUB  13        0    5.11502E+00   134.700     0.000   133.599    72.717    41.264     0.000     1.393     0.000    80.825     0.001     0.001     0.000     0.000     0.000     0.000    79.351     0.053     0.000 .00000E+00 0.000E+00 0.000E+00 0.000E+00 0.000E+00 0.000E+00
BIGSUB  14        0    5.37655E-01   134.700     0.000   133.609    72.717    41.265     0.000     1.393     0.000    80.827     0.001     0.001     0.000     0.000     0.000     0.000    79.353     0.053     0.000 .00000E+00 0.000E+00 0.000E+00 0.000E+00 0.000E+00 0.000E+00
BIGSUB  15        0    5.48428E-01   134.700     0.000   133.628    73.440    47.483     0.081     1.270     0.062    80.034     0.001     0.001     0.000     0.000     0.000     0.000    78.577     0.054     0.000 .00000E+00 0.000E+00 0.000E+00 0.000E+00 0.000E+00 0.000E+00
BIGSUB  16        0    5.90906E-01   134.700     0.000   133.630    74.568    60.788     0.137     1.081     0.138    78.351     0.001     0.001     0.000     0.000     0.000     0.000    76.887     0.057     0.000 .00000E+00 0.000E+00 0.000E+00 0.000E+00 0.000E+00 0.000E+00
BIGSUB  17        0    5.53148E-01   134.700     0.000   133.537    72.709    41.258     0.000     1.391     0.000    80.822     0.001     0.001     0.000     0.000     0.000     0.000    79.344     0.053     0.000 .00000E+00 0.000E+00 0.000E+00 0.000E+00 0.000E+00 0.000E+00
BIGSUB  18        0    5.11290E-02   134.700     0.000   133.611    74.153    48.321     0.000     1.955     0.000    76.716     0.000     0.000     0.000     0.000     0.000     0.000    74.556     0.054     0.000 .00000E+00 0.000E+00 0.000E+00 0.000E+00 0.000E+00 0.000E+00
BIGSUB  19        0    5.50275E-01   134.700     0.000   133.594    72.747    41.367     0.082     1.453     0.091    80.825     0.001     0.001     0.000     0.000     0.000     0.000    79.189     0.053     0.000 .00000E+00 0.000E+00 0.000E+00 0.000E+00 0.000E+00 0.000E+00
BIGSUB  20        0    5.27190E-01   134.700     0.000   133.605    72.716    41.265     0.000     1.393     0.000    80.830     0.001     0.001     0.000     0.000     0.000     0.000    79.353     0.053     0.000 .00000E+00 0.000E+00 0.000E+00 0.000E+00 0.000E+00 0.000E+00
BIGSUB  21        0    5.13749E+00   134.700     0.000   133.560    73.712    46.196     0.000     1.779     0.000    77.962     0.001     0.002     0.000     0.000     0.000     0.000    76.015     0.054     0.000 .00000E+00 0.000E+00 0.000E+00 0.000E+00 0.000E+00 0.000E+00
BIGSUB  22        0    5.16827E-01   134.700     0.000   133.634    72.718    41.269     0.000     1.394     0.000    80.835     0.001     0.001     0.000     0.000     0.000     0.000    79.357     0.053     0.000 .00000E+00 0.000E+00 0.000E+00 0.000E+00 0.000E+00 0.000E+00
BIGSUB  23        0    5.33038E-01   134.700     0.000   133.594    73.593    45.478     0.251     1.821     0.278    78.522     0.001     0.002     0.000     0.000     0.000     0.000    76.239     0.054     0.000 .00000E+00 0.000E+00 0.000E+00 0.000E+00 0.000E+00 0.000E+00
BIGSUB  24        0    5.12518E-01   134.700     0.000   133.609    72.838    41.917     0.000     1.442     0.000    80.463     0.001     0.001     0.000     0.000     0.000     0.000    78.918     0.053     0.000 .00000E+00 0.000E+00 0.000E+00 0.000E+00 0.000E+00 0.000E+00
BIGSUB  25        0    5.22060E-01   134.700     0.000   133.616    72.914    42.269     0.000     1.470     0.000    80.260     0.001     0.001     0.000     0.000     0.000     0.000    78.683     0.053     0.000 .00000E+00 0.000E+00 0.000E+00 0.000E+00 0.000E+00 0.000E+00
BIGSUB  26        0    5.22470E-01   134.700     0.000   133.624    72.718    41.267     0.000     1.393     0.000    80.830     0.001     0.001     0.000     0.000     0.000     0.000    79.355     0.053     0.000 .00000E+00 0.000E+00 0.000E+00 0.000E+00 0.000E+00 0.000E+00
BIGSUB  27        0    5.31089E-01   134.700     0.000   133.644    72.879    42.095     0.000     1.457     0.000    80.367     0.001     0.001     0.000     0.000     0.000     0.000    78.805     0.053     0.000 .00000E+00 0.000E+00 0.000E+00 0.000E+00 0.000E+00 0.000E+00
BIGSUB  28        0    5.92300E-03   134.700     0.000   133.660    75.124    52.882     0.000     2.354     0.000    73.903     0.000     0.000     0.000     0.000     0.000     0.000    71.258     0.053     0.000 .00000E+00 0.000E+00 0.000E+00 0.000E+00 0.000E+00 0.000E+00
BIGSUB  29        0    5.82595E-01   134.700     0.000   133.650    72.918    42.668     0.514     1.433     0.548    80.573     0.001     0.001     0.000     0.000     0.000     0.000    78.438     0.052     0.000 .00000E+00 0.000E+00 0.000E+00 0.000E+00 0.000E+00 0.000E+00
BIGSUB  30        0    5.58480E-02   134.700     0.000   133.667    74.002    50.488     2.937     1.974     2.848    78.680     0.001     0.001     0.000     0.000     0.000     0.000    73.350     0.049     0.000 .00000E+00 0.000E+00 0.000E+00 0.000E+00 0.000E+00 0.000E+00
BIGSUB  31        0    5.27600E-01   134.700     0.000   133.666    80.241    84.188     4.546     4.416     4.983    70.811     0.015     0.033     0.004     0.001     0.001     0.003    60.227     0.040     0.000 .00000E+00 0.000E+00 0.000E+00 0.000E+00 0.000E+00 0.000E+00
BIGSUB   1        0    6.87315E-01   299.100     0.000    88.329    60.174    60.157     0.000    98.584     0.000   223.667     0.148     0.255     0.031     0.004     0.004     0.024   124.977     0.186     0.000 .00000E+00 0.000E+00 0.000E+00 0.000E+00 0.000E+00 0.000E+00
BIGSUB   2        0    6.16673E+00   299.100     0.000    88.335    60.167    60.049     0.000    98.506     0.000   223.711     0.161     0.259     0.032     0.004     0.004     0.024   125.100     0.186     0.000 .00000E+00 0.000E+00 0.000E+00 0.000E+00 0.000E+00 0.000E+00
BIGSUB   3        0    6.40631E-01   299.100     0.000    88.304    59.898    53.922     0.000    95.042     0.000   225.370     0.189     0.258     0.032     0.004     0.004     0.024   130.270     0.184     0.000 .00000E+00 0.000E+00 0.000E+00 0.000E+00 0.000E+00 0.000E+00
BIGSUB   4        0    6.30883E-01   299.100     0.000    88.245    59.712    54.796     0.000    94.716     0.000   226.033     0.144     0.241     0.030     0.004     0.004     0.023   131.248     0.194     0.000 .00000E+00 0.000E+00 0.000E+00 0.000E+00 0.000E+00 0.000E+00
BIGSUB   5        0    6.61151E-01   299.100     0.000    88.325    60.690    50.524     0.150    96.868     0.093   221.983     0.153     0.282     0.035     0.003     0.006     0.028   124.968     0.140     0.000 .00000E+00 0.000E+00 0.000E+00 0.000E+00 0.000E+00 0.000E+00
BIGSUB   6        0    6.65871E-01   299.100     0.000    88.241    61.193    48.247     0.284    98.089     0.177   219.701     0.126     0.303     0.039     0.003     0.007     0.032   121.382     0.110     0.000 .00000E+00 0.000E+00 0.000E+00 0.000E+00 0.000E+00 0.000E+00
BIGSUB   7        0    6.55918E-01   299.100     0.000    88.413    60.234    60.426     0.168    98.814     0.105   223.514     0.140     0.251     0.031     0.004     0.004     0.023   124.479     0.185     0.000 .00000E+00 0.000E+00 0.000E+00 0.000E+00 0.000E+00 0.000E+00
BIGSUB   8        0    6.64948E-01   299.100     0.000    88.236    61.027    69.195     0.570   105.152     0.354   219.740     0.136     0.280     0.035     0.003     0.005     0.026   114.024     0.171     0.000 .00000E+00 0.000E+00 0.000E+00 0.000E+00 0.000E+00 0.000E+00
BIGSUB   9        0    6.48839E-01   299.100     0.000    88.387    59.761    54.757     0.000    94.709     0.000   226.018     0.152     0.244     0.030     0.004     0.004     0.023   131.240     0.193     0.000 .00000E+00 0.000E+00 0.000E+00 0.000E+00 0.000E+00 0.000E+00
BIGSUB  10        0    6.53661E-01   299.100     0.000    88.406    59.784    54.912     0.170    94.827     0.106   225.910     0.151     0.244     0.030     0.004     0.004     0.023   130.900     0.193     0.000 .00000E+00 0.000E+00 0.000E+00 0.000E+00 0.000E+00 0.000E+00
BIGSUB  11        0    6.62895E-01   299.100     0.000    88.409    59.768    54.661     0.000    94.670     0.000   226.069     0.192     0.256     0.032     0.004     0.003     0.024   131.337     0.193     0.000 .00000E+00 0.000E+00 0.000E+00 0.000E+00 0.000E+00 0.000E+00
BIGSUB  12        0    6.12004E+00   299.100     0.000    88.401    59.765    54.662     0.000    94.671     0.000   226.074     0.183     0.254     0.031     0.004     0.003     0.024   131.339     0.193     0.000 .00000E+00 0.000E+00 0.000E+00 0.000E+00 0.000E+00 0.000E+00
BIGSUB  13        0    6.11502E+00   299.100     0.000    88.502    59.801    54.653     0.000    94.673     0.000   226.045     0.228     0.262     0.033     0.004     0.003     0.025   131.312     0.192     0.000 .00000E+00 0.000E+00 0.000E+00 0.000E+00 0.000E+00 0.000E+00
BIGSUB  14        0    6.37655E-01   299.100     0.000    88.531    59.811    54.651     0.000    94.674     0.000   226.039     0.198     0.257     0.032     0.004     0.003     0.024   131.305     0.193     0.000 .00000E+00 0.000E+00 0.000E+00 0.000E+00 0.000E+00 0.000E+00
BIGSUB  15        0    6.48428E-01   299.100     0.000    88.588    60.002    62.182     0.187    92.241     0.095   224.473     0.260     0.258     0.032     0.004     0.003     0.024   132.043     0.200     0.000 .00000E+00 0.000E+00 0.000E+00 0.000E+00 0.000E+00 0.000E+00
BIGSUB  16        0    6.90906E-01   299.100     0.000    88.595    60.612    78.463     0.384    88.172     0.191   220.876     0.235     0.244     0.030     0.004     0.004     0.023   132.331     0.208     0.000 .00000E+00 0.000E+00 0.000E+00 0.000E+00 0.000E+00 0.000E+00
BIGSUB  17        0    6.53148E-01   299.100     0.000    88.315    59.734    54.670     0.000    94.668     0.000   226.094     0.168     0.250     0.031     0.004     0.004     0.023   131.361     0.194     0.000 .00000E+00 0.000E+00 0.000E+00 0.000E+00 0.000E+00 0.000E+00
BIGSUB  18        0    6.11290E-02   299.100     0.000    88.536    60.760    65.711     0.000   102.598     0.000   221.218     0.084     0.227     0.028     0.004     0.006     0.021   118.469     0.179     0.000 .00000E+00 0.000E+00 0.000E+00 0.000E+00 0.000E+00 0.000E+00
BIGSUB  19        0    6.50275E-01   299.100     0.000    88.486    59.810    54.735     0.187    94.762     0.117   225.996     0.213     0.260     0.032     0.004     0.003     0.024   131.048     0.192     0.000 .00000E+00 0.000E+00 0.000E+00 0.000E+00 0.000E+00 0.000E+00
BIGSUB  20        0    6.27190E-01   299.100     0.000    88.519    59.806    54.653     0.000    94.674     0.000   226.044     0.167     0.249     0.031     0.004     0.004     0.023   131.308     0.193     0.000 .00000E+00 0.000E+00 0.000E+00 0.000E+00 0.000E+00 0.000E+00
BIGSUB  21        0    6.13749E+00   299.100     0.000    88.385    60.401    62.477     0.000   100.262     0.000   222.649     0.153     0.264     0.033     0.004     0.004     0.025   122.263     0.182     0.000 .00000E+00 0.000E+00 0.000E+00 0.000E+00 0.000E+00 0.000E+00
BIGSUB  22        0    6.16827E-01   299.100     0.000    88.606    59.836    54.646     0.000    94.677     0.000   226.025     0.153     0.244     0.030     0.004     0.004     0.023   131.285     0.194     0.000 .00000E+00 0.000E+00 0.000E+00 0.000E+00 0.000E+00 0.000E+00
BIGSUB  23        0    6.33038E-01   299.100     0.000    88.485    60.335    61.107     0.568    99.380     0.355   223.165     0.130     0.246     0.030     0.004     0.004     0.023   123.289     0.184     0.000 .00000E+00 0.000E+00 0.000E+00 0.000E+00 0.000E+00 0.000E+00
BIGSUB  24        0    6.12518E-01   299.100     0.000    88.530    59.885    55.780     0.000    95.428     0.000   225.507     0.124     0.233     0.029     0.004     0.004     0.022   130.003     0.192     0.000 .00000E+00 0.000E+00 0.000E+00 0.000E+00 0.000E+00 0.000E+00
BIGSUB  25        0    6.22060E-01   299.100     0.000    88.551    59.937    56.333     0.000    95.832     0.000   225.261     0.132     0.238     0.029     0.004     0.004     0.022   129.350     0.191     0.000 .00000E+00 0.000E+00 0.000E+00 0.000E+00 0.000E+00 0.000E+00
BIGSUB  26        0    6.22470E-01   299.100     0.000    88.574    59.826    54.648     0.000    94.675     0.000   226.030     0.181     0.253     0.031     0.004     0.003     0.024   131.293     0.193     0.000 .00000E+00 0.000E+00 0.000E+00 0.000E+00 0.000E+00 0.000E+00
BIGSUB  27        0    6.31089E-01   299.100     0.000    88.635    59.944    56.047     0.000    95.631     0.000   225.363     0.138     0.240     0.030     0.004     0.004     0.022   129.654     0.192     0.000 .00000E+00 0.000E+00 0.000E+00 0.000E+00 0.000E+00 0.000E+00
BIGSUB  28        0    6.92300E-03   299.100     0.000    88.684    61.537    72.480     0.000   107.471     0.000   218.315     0.081     0.245     0.030     0.003     0.006     0.023   110.629     0.168     0.000 .00000E+00 0.000E+00 0.000E+00 0.000E+00 0.000E+00 0.000E+00
BIGSUB  29        0    6.82595E-01   299.100     0.000    88.653    59.949    55.897     1.381    94.897     0.775   225.511     0.235     0.262     0.032     0.004     0.003     0.024   129.716     0.190     0.000 .00000E+00 0.000E+00 0.000E+00 0.000E+00 0.000E+00 0.000E+00
BIGSUB  30        0    6.58480E-02   299.100     0.000    88.704    60.531    63.482     7.511    97.383     4.105   222.660     0.128     0.227     0.028     0.004     0.006     0.021   120.747     0.179     0.000 .00000E+00 0.000E+00 0.000E+00 0.000E+00 0.000E+00 0.000E+00
BIGSUB  31        0    6.27600E-01   299.100     0.000    88.701    62.892    97.253    17.572   105.460     7.461   214.071     0.246     0.425     0.052     0.003     0.011     0.041   100.190     0.146     0.000 .00000E+00 0.000E+00 0.000E+00 0.000E+00 0.000E+00 0.000E+00
BIGSUB   1        0    7.87315E-01   248.800     0.000   102.687    73.235    73.203     0.000    15.423     0.000   162.837     0.036     0.072     0.009     0.001     0.001     0.007   147.332     0.194     0.000 .00000E+00 0.000E+00 0.000E+00 0.000E+00 0.000E+00 0.000E+00
BIGSUB   2        0    7.16673E+00   248.800     0.000   102.696    73.221    73.049     0.000    15.351     0.000   162.897     0.038     0.073     0.009     0.001     0.001     0.007   147.465     0.194     0.000 .00000E+00 0.000E+00 0.000E+00 0.000E+00 0.000E+00 0.000E+00
BIGSUB   3        0    7.40631E-01   248.800     0.000   102.645    72.197    64.469     0.000    12.605     0.000   166.351     0.036     0.060     0.007     0.001     0.001     0.006   153.701     0.203     0.000 .00000E+00 0.000E+00 0.000E+00 0.000E+00 0.000E+00 0.000E+00
BIGSUB   4        0    7.30883E-01   248.800     0.000   102.547    72.332    65.466     0.000    12.002     0.000   166.100     0.027     0.054     0.007     0.001     0.000     0.005   154.045     0.204     0.000 .00000E+00 0.000E+00 0.000E+00 0.000E+00 0.000E+00 0.000E+00
BIGSUB   5        0    7.61151E-01   248.800     0.000   102.680    71.474    60.970     0.231    15.838     0.122   167.067     0.033     0.080     0.010     0.002     0.001     0.008   151.063     0.203     0.000 .00000E+00 0.000E+00 0.000E+00 0.000E+00 0.000E+00 0.000E+00
BIGSUB   6        0    7.65871E-01   248.800     0.000   102.542    70.931    58.641     0.437    18.030     0.232   167.567     0.031     0.097     0.012     0.002     0.002     0.010   149.261     0.203     0.000 .00000E+00 0.000E+00 0.000E+00 0.000E+00 0.000E+00 0.000E+00
BIGSUB   7        0    7.55918E-01   248.800     0.000   102.825    73.333    73.515     0.259    15.585     0.137   162.583     0.034     0.071     0.009     0.001     0.001     0.007   146.769     0.193     0.000 .00000E+00 0.000E+00 0.000E+00 0.000E+00 0.000E+00 0.000E+00
BIGSUB   8        0    7.64948E-01   248.800     0.000   102.533    75.004    85.570     0.878    21.719     0.465   157.389     0.044     0.108     0.013     0.002     0.001     0.010   135.038     0.177     0.000 .00000E+00 0.000E+00 0.000E+00 0.000E+00 0.000E+00 0.000E+00
BIGSUB   9        0    7.48839E-01   248.800     0.000   102.782    72.414    65.375     0.000    11.973     0.000   166.069     0.029     0.055     0.007     0.001     0.000     0.005   154.044     0.203     0.000 .00000E+00 0.000E+00 0.000E+00 0.000E+00 0.000E+00 0.000E+00
BIGSUB  10        0    7.53661E-01   248.800     0.000   102.813    72.446    65.565     0.262    12.064     0.139   165.888     0.029     0.055     0.007     0.001     0.000     0.005   153.623     0.202     0.000 .00000E+00 0.000E+00 0.000E+00 0.000E+00 0.000E+00 0.000E+00
BIGSUB  11        0    7.62895E-01   248.800     0.000   102.819    72.421    65.202     0.000    11.907     0.000   166.136     0.036     0.057     0.007     0.001     0.000     0.005   154.181     0.203     0.000 .00000E+00 0.000E+00 0.000E+00 0.000E+00 0.000E+00 0.000E+00
BIGSUB  12        0    7.12004E+00   248.800     0.000   102.805    72.415    65.205     0.000    11.907     0.000   166.141     0.035     0.056     0.007     0.001     0.000     0.005   154.184     0.203     0.000 .00000E+00 0.000E+00 0.000E+00 0.000E+00 0.000E+00 0.000E+00
BIGSUB  13        0    7.11502E+00   248.800     0.000   102.972    72.475    65.175     0.000    11.900     0.000   166.099     0.043     0.058     0.007     0.001     0.000     0.005   154.153     0.203     0.000 .00000E+00 0.000E+00 0.000E+00 0.000E+00 0.000E+00 0.000E+00
BIGSUB  14        0    7.37655E-01   248.800     0.000   103.020    72.492    65.167     0.000    11.898     0.000   166.088     0.037     0.057     0.007     0.001     0.000     0.005   154.144     0.203     0.000 .00000E+00 0.000E+00 0.000E+00 0.000E+00 0.000E+00 0.000E+00
BIGSUB  15        0    7.48428E-01   248.800     0.000   103.114    72.957    73.640     0.289    11.060     0.142   164.557     0.049     0.053     0.007     0.002     0.000     0.005   153.282     0.206     0.000 .00000E+00 0.000E+00 0.000E+00 0.000E+00 0.000E+00 0.000E+00
BIGSUB  16        0    7.90906E-01   248.800     0.000   103.125    73.821    92.228     0.903     9.398     0.334   161.024     0.042     0.044     0.005     0.001     0.000     0.004   151.146     0.208     0.000 .00000E+00 0.000E+00 0.000E+00 0.000E+00 0.000E+00 0.000E+00
BIGSUB  17        0    7.53148E-01   248.800     0.000   102.663    72.364    65.230     0.000    11.914     0.000   166.174     0.032     0.055     0.007     0.001     0.000     0.005   154.210     0.204     0.000 .00000E+00 0.000E+00 0.000E+00 0.000E+00 0.000E+00 0.000E+00
BIGSUB  18        0    7.11290E-02   248.800     0.000   103.029    74.417    80.949     0.000    19.238     0.000   159.486     0.024     0.078     0.010     0.002     0.001     0.007   140.131     0.186     0.000 .00000E+00 0.000E+00 0.000E+00 0.000E+00 0.000E+00 0.000E+00
BIGSUB  19        0    7.50275E-01   248.800     0.000   102.946    72.481    65.234     0.287    11.939     0.153   165.990     0.040     0.057     0.007     0.001     0.000     0.005   153.843     0.202     0.000 .00000E+00 0.000E+00 0.000E+00 0.000E+00 0.000E+00 0.000E+00
BIGSUB  20        0    7.27190E-01   248.800     0.000   103.000    72.484    65.171     0.000    11.899     0.000   166.095     0.032     0.055     0.007     0.001     0.000     0.005   154.148     0.204     0.000 .00000E+00 0.000E+00 0.000E+00 0.000E+00 0.000E+00 0.000E+00
BIGSUB  21        0    7.13749E+00   248.800     0.000   102.779    73.686    76.477     0.000    16.985     0.000   161.441     0.040     0.082     0.010     0.001     0.001     0.008   144.360     0.189     0.000 .00000E+00 0.000E+00 0.000E+00 0.000E+00 0.000E+00 0.000E+00
BIGSUB  22        0    7.16827E-01   248.800     0.000   103.143    72.535    65.146     0.000    11.893     0.000   166.063     0.029     0.054     0.007     0.001     0.000     0.005   154.122     0.204     0.000 .00000E+00 0.000E+00 0.000E+00 0.000E+00 0.000E+00 0.000E+00
BIGSUB  23        0    7.33038E-01   248.800     0.000   102.943    73.497    74.338     0.874    16.006     0.464   162.009     0.032     0.072     0.009     0.001     0.001     0.007   145.424     0.192     0.000 .00000E+00 0.000E+00 0.000E+00 0.000E+00 0.000E+00 0.000E+00
BIGSUB  24        0    7.12518E-01   248.800     0.000   103.018    72.645    66.877     0.000    12.608     0.000   165.363     0.025     0.055     0.007     0.001     0.001     0.005   152.696     0.202     0.000 .00000E+00 0.000E+00 0.000E+00 0.000E+00 0.000E+00 0.000E+00
BIGSUB  25        0    7.22060E-01   248.800     0.000   103.053    72.743    67.675     0.000    12.952     0.000   165.022     0.027     0.057     0.007     0.001     0.001     0.005   152.008     0.201     0.000 .00000E+00 0.000E+00 0.000E+00 0.000E+00 0.000E+00 0.000E+00
BIGSUB  26        0    7.22470E-01   248.800     0.000   103.091    72.517    65.154     0.000    11.895     0.000   166.073     0.034     0.056     0.007     0.001     0.000     0.005   154.131     0.203     0.000 .00000E+00 0.000E+00 0.000E+00 0.000E+00 0.000E+00 0.000E+00
BIGSUB  27        0    7.31089E-01   248.800     0.000   103.190    72.749    67.245     0.000    12.771     0.000   165.158     0.028     0.057     0.007     0.001     0.001     0.005   152.327     0.201     0.000 .00000E+00 0.000E+00 0.000E+00 0.000E+00 0.000E+00 0.000E+00
BIGSUB  28        0    7.92300E-03   248.800     0.000   103.271    76.079    89.686     0.000    24.203     0.000   155.889     0.029     0.103     0.013     0.002     0.001     0.010   131.520     0.175     0.000 .00000E+00 0.000E+00 0.000E+00 0.000E+00 0.000E+00 0.000E+00
BIGSUB  29        0    7.82595E-01   248.800     0.000   103.221    72.656    66.226     1.859    11.910     1.027   165.333     0.044     0.057     0.007     0.001     0.000     0.005   152.286     0.200     0.000 .00000E+00 0.000E+00 0.000E+00 0.000E+00 0.000E+00 0.000E+00
BIGSUB  30        0    7.58480E-02   248.800     0.000   103.304    73.333    73.114    10.690    13.217     5.610   161.368     0.025     0.052     0.006     0.001     0.001     0.005   142.134     0.189     0.001 .00000E+00 0.000E+00 0.000E+00 0.000E+00 0.000E+00 0.000E+00
BIGSUB  31        0    7.27600E-01   248.800     0.000   103.300    74.959   102.634    30.782    17.538    12.987   151.714     0.063     0.121     0.015     0.001     0.002     0.012   120.266     0.166     0.002 .00000E+00 0.000E+00 0.000E+00 0.000E+00 0.000E+00 0.000E+00
BIGSUB   1        0    8.87315E-01   467.800     0.000   112.324    71.382    88.189     2.174   167.356     0.000   379.104     1.008     2.015     0.248     0.006     0.006     0.191   211.685     0.209     0.000 .00000E+00 0.000E+00 0.000E+00 0.000E+00 0.000E+00 0.000E+00
BIGSUB   2        0    8.16673E+00   467.800     0.000   112.332    71.369    88.187     2.089   167.119     0.000   379.049     1.090     2.048     0.252     0.006     0.006     0.194   211.867     0.208     0.000 .00000E+00 0.000E+00 0.000E+00 0.000E+00 0.000E+00 0.000E+00
BIGSUB   3        0    8.40631E-01   467.800     0.000   112.286    70.173    83.145     0.000   154.878     0.000   378.755     1.216     1.916     0.237     0.006     0.006     0.184   223.844     0.203     0.000 .00000E+00 0.000E+00 0.000E+00 0.000E+00 0.000E+00 0.000E+00
BIGSUB   4        0    8.30883E-01   467.800     0.000   112.196    70.378    84.398     0.000   153.146     0.000   378.300     0.927     1.817     0.223     0.006     0.005     0.172   225.115     0.202     0.000 .00000E+00 0.000E+00 0.000E+00 0.000E+00 0.000E+00 0.000E+00
BIGSUB   5        0    8.61151E-01   467.800     0.000   112.317    69.281    78.893     0.350   165.317     0.194   380.246     0.967     2.046     0.257     0.009     0.010     0.208   214.700     0.206     0.000 .00000E+00 0.000E+00 0.000E+00 0.000E+00 0.000E+00 0.000E+00
BIGSUB   6        0    8.65871E-01   467.800     0.000   112.191    68.628    76.057     0.663   172.412     0.369   381.270     0.784     2.174     0.275     0.011     0.013     0.229   208.451     0.207     0.000 .00000E+00 0.000E+00 0.000E+00 0.000E+00 0.000E+00 0.000E+00
BIGSUB   7        0    8.55918E-01   467.800     0.000   112.449    71.468    88.188     2.721   167.805     0.218   379.015     0.951     1.988     0.244     0.006     0.006     0.188   210.918     0.209     0.000 .00000E+00 0.000E+00 0.000E+00 0.000E+00 0.000E+00 0.000E+00
BIGSUB   8        0    8.64948E-01   467.800     0.000   112.184    72.637    88.330    11.544   180.125     0.740   381.551     0.944     2.257     0.277     0.006     0.007     0.213   200.534     0.240     0.000 .00000E+00 0.000E+00 0.000E+00 0.000E+00 0.000E+00 0.000E+00
BIGSUB   9        0    8.48839E-01   467.800     0.000   112.411    70.446    84.276     0.000   152.958     0.000   378.263     0.983     1.838     0.226     0.006     0.005     0.174   225.266     0.202     0.000 .00000E+00 0.000E+00 0.000E+00 0.000E+00 0.000E+00 0.000E+00
BIGSUB  10        0    8.53661E-01   467.800     0.000   112.439    70.492    84.490     0.399   153.323     0.221   378.025     0.978     1.837     0.226     0.006     0.005     0.174   224.432     0.201     0.000 .00000E+00 0.000E+00 0.000E+00 0.000E+00 0.000E+00 0.000E+00
BIGSUB  11        0    8.62895E-01   467.800     0.000   112.444    70.427    84.025     0.000   152.576     0.000   378.356     1.235     1.912     0.235     0.006     0.005     0.182   225.745     0.202     0.000 .00000E+00 0.000E+00 0.000E+00 0.000E+00 0.000E+00 0.000E+00
BIGSUB  12        0    8.12004E+00   467.800     0.000   112.432    70.422    84.029     0.000   152.582     0.000   378.362     1.178     1.898     0.233     0.006     0.005     0.180   225.744     0.202     0.000 .00000E+00 0.000E+00 0.000E+00 0.000E+00 0.000E+00 0.000E+00
BIGSUB  13        0    8.11502E+00   467.800     0.000   112.584    70.478    83.991     0.000   152.523     0.000   378.311     1.464     1.948     0.240     0.006     0.004     0.186   225.753     0.202     0.000 .00000E+00 0.000E+00 0.000E+00 0.000E+00 0.000E+00 0.000E+00
BIGSUB  14        0    8.37655E-01   467.800     0.000   112.628    70.493    83.981     0.000   152.507     0.000   378.298     1.272     1.917     0.236     0.006     0.005     0.182   225.756     0.202     0.000 .00000E+00 0.000E+00 0.000E+00 0.000E+00 0.000E+00 0.000E+00
BIGSUB  15        0    8.48428E-01   467.800     0.000   112.713    71.171    91.423     2.301   147.249     0.238   376.619     1.670     1.870     0.231     0.006     0.005     0.178   229.071     0.213     0.000 .00000E+00 0.000E+00 0.000E+00 0.000E+00 0.000E+00 0.000E+00
BIGSUB  16        0    8.90906E-01   467.800     0.000   112.723    72.122   106.035     8.868   136.863     0.869   373.790     1.495     1.711     0.211     0.006     0.005     0.162   235.927     0.237     0.000 .00000E+00 0.000E+00 0.000E+00 0.000E+00 0.000E+00 0.000E+00
BIGSUB  17        0    8.53148E-01   467.800     0.000   112.302    70.375    84.060     0.000   152.630     0.000   378.403     1.084     1.873     0.230     0.006     0.005     0.178   225.736     0.203     0.000 .00000E+00 0.000E+00 0.000E+00 0.000E+00 0.000E+00 0.000E+00
BIGSUB  18        0    8.11290E-02   467.800     0.000   112.635    72.416    88.252     6.888   177.286     0.000   381.083     0.588     1.858     0.228     0.007     0.009     0.174   203.701     0.230     0.000 .00000E+00 0.000E+00 0.000E+00 0.000E+00 0.000E+00 0.000E+00
BIGSUB  19        0    8.50275E-01   467.800     0.000   112.560    70.478    84.009     0.436   152.591     0.242   378.169     1.372     1.932     0.238     0.006     0.005     0.184   225.291     0.202     0.000 .00000E+00 0.000E+00 0.000E+00 0.000E+00 0.000E+00 0.000E+00
BIGSUB  20        0    8.27190E-01   467.800     0.000   112.609    70.486    83.986     0.000   152.515     0.000   378.305     1.075     1.866     0.229     0.006     0.005     0.177   225.754     0.203     0.000 .00000E+00 0.000E+00 0.000E+00 0.000E+00 0.000E+00 0.000E+00
BIGSUB  21        0    8.13749E+00   467.800     0.000   112.408    71.788    88.219     4.047   172.226     0.000   380.087     1.056     2.119     0.260     0.006     0.006     0.201   207.785     0.216     0.000 .00000E+00 0.000E+00 0.000E+00 0.000E+00 0.000E+00 0.000E+00
BIGSUB  22        0    8.16827E-01   467.800     0.000   112.740    70.532    83.956     0.000   152.467     0.000   378.265     0.987     1.834     0.225     0.006     0.005     0.174   225.761     0.203     0.000 .00000E+00 0.000E+00 0.000E+00 0.000E+00 0.000E+00 0.000E+00
BIGSUB  23        0    8.33038E-01   467.800     0.000   112.558    71.606    88.196     4.065   168.994     0.737   378.893     0.886     1.962     0.241     0.006     0.007     0.185   209.063     0.210     0.000 .00000E+00 0.000E+00 0.000E+00 0.000E+00 0.000E+00 0.000E+00
BIGSUB  24        0    8.12518E-01   467.800     0.000   112.626    70.817    86.157     0.000   156.044     0.000   377.520     0.812     1.782     0.219     0.006     0.006     0.168   221.432     0.199     0.000 .00000E+00 0.000E+00 0.000E+00 0.000E+00 0.000E+00 0.000E+00
BIGSUB  25        0    8.22060E-01   467.800     0.000   112.658    70.974    87.055     0.000   157.638     0.000   377.265     0.867     1.827     0.224     0.006     0.006     0.173   219.581     0.197     0.000 .00000E+00 0.000E+00 0.000E+00 0.000E+00 0.000E+00 0.000E+00
BIGSUB  26        0    8.22470E-01   467.800     0.000   112.693    70.516    83.966     0.000   152.484     0.000   378.278     1.164     1.891     0.233     0.006     0.005     0.180   225.759     0.203     0.000 .00000E+00 0.000E+00 0.000E+00 0.000E+00 0.000E+00 0.000E+00
BIGSUB  27        0    8.31089E-01   467.800     0.000   112.783    70.953    86.602     0.000   156.789     0.000   377.309     0.904     1.837     0.226     0.006     0.006     0.174   220.476     0.197     0.000 .00000E+00 0.000E+00 0.000E+00 0.000E+00 0.000E+00 0.000E+00
BIGSUB  28        0    8.92300E-03   467.800     0.000   112.857    73.035    88.328    14.218   180.757     0.000   381.865     0.552     1.954     0.239     0.006     0.009     0.183   200.956     0.255     0.000 .00000E+00 0.000E+00 0.000E+00 0.000E+00 0.000E+00 0.000E+00
BIGSUB  29        0    8.82595E-01   467.800     0.000   112.811    70.630    84.768     3.173   152.102     1.639   376.972     1.509     1.935     0.238     0.006     0.004     0.184   223.125     0.199     0.001 .00000E+00 0.000E+00 0.000E+00 0.000E+00 0.000E+00 0.000E+00
BIGSUB  30        0    8.58480E-02   467.800     0.000   112.887    71.133    89.335    18.239   153.242     9.109   371.528     0.825     1.701     0.209     0.006     0.008     0.161   208.740     0.192     0.004 .00000E+00 0.000E+00 0.000E+00 0.000E+00 0.000E+00 0.000E+00
BIGSUB  31        0    8.27600E-01   467.800     0.000   112.883    72.445   112.842    49.094   154.054    24.727   361.702     0.943     1.612     0.198     0.006     0.013     0.153   181.870     0.179     0.007 .00000E+00 0.000E+00 0.000E+00 0.000E+00 0.000E+00 0.000E+00
BIGSUB   1        0    9.87315E-01   166.700     0.000   150.070    80.822    78.656     0.427    19.946     0.000    95.322     0.296     0.484     0.059     0.002     0.001     0.046    75.315     0.050     0.000 .00000E+00 0.000E+00 0.000E+00 0.000E+00 0.000E+00 0.000E+00
BIGSUB   2        0    9.16673E+00   166.700     0.000   150.079    80.811    78.643     0.418    19.945     0.000    95.352     0.320     0.491     0.060     0.002     0.001     0.047    75.347     0.050     0.000 .00000E+00 0.000E+00 0.000E+00 0.000E+00 0.000E+00 0.000E+00
BIGSUB   3        0    9.40631E-01   166.700     0.000   150.029    79.217    74.237     0.000    18.930     0.000    96.707     0.363     0.469     0.058     0.002     0.001     0.045    77.753     0.046     0.000 .00000E+00 0.000E+00 0.000E+00 0.000E+00 0.000E+00 0.000E+00
BIGSUB   4        0    9.30883E-01   166.700     0.000   149.934    79.536    75.279     0.000    18.534     0.000    96.604     0.277     0.445     0.055     0.002     0.001     0.042    78.041     0.046     0.000 .00000E+00 0.000E+00 0.000E+00 0.000E+00 0.000E+00 0.000E+00
BIGSUB   5        0    9.61151E-01   166.700     0.000   150.064    78.057    70.664     0.102    21.359     0.229    97.321     0.298     0.538     0.068     0.003     0.001     0.055    75.704     0.048     0.000 .00000E+00 0.000E+00 0.000E+00 0.000E+00 0.000E+00 0.000E+00
BIGSUB   6        0    9.65871E-01   166.700     0.000   149.928    77.254    68.295     0.194    23.011     0.435    97.775     0.250     0.597     0.076     0.004     0.002     0.064    74.295     0.050     0.000 .00000E+00 0.000E+00 0.000E+00 0.000E+00 0.000E+00 0.000E+00
BIGSUB   7        0    9.55918E-01   166.700     0.000   150.205    80.887    78.671     0.557    19.947     0.257    95.380     0.278     0.477     0.059     0.002     0.001     0.045    75.101     0.050     0.000 .00000E+00 0.000E+00 0.000E+00 0.000E+00 0.000E+00 0.000E+00
BIGSUB   8        0    9.64948E-01   166.700     0.000   149.920    81.936    79.627     1.649    20.020     0.873    93.139     0.252     0.497     0.061     0.002     0.001     0.047    72.053     0.055     0.000 .00000E+00 0.000E+00 0.000E+00 0.000E+00 0.000E+00 0.000E+00
BIGSUB   9        0    9.48839E-01   166.700     0.000   150.164    79.550    75.162     0.000    18.488     0.000    96.584     0.293     0.448     0.055     0.002     0.001     0.043    78.068     0.046     0.000 .00000E+00 0.000E+00 0.000E+00 0.000E+00 0.000E+00 0.000E+00
BIGSUB  10        0    9.53661E-01   166.700     0.000   150.194    79.624    75.335     0.116    18.570     0.261    96.708     0.292     0.449     0.055     0.002     0.001     0.043    77.838     0.045     0.000 .00000E+00 0.000E+00 0.000E+00 0.000E+00 0.000E+00 0.000E+00
BIGSUB  11        0    9.62895E-01   166.700     0.000   150.199    79.496    74.964     0.000    18.393     0.000    96.584     0.368     0.461     0.057     0.002     0.001     0.044    78.166     0.045     0.000 .00000E+00 0.000E+00 0.000E+00 0.000E+00 0.000E+00 0.000E+00
BIGSUB  12        0    9.12004E+00   166.700     0.000   150.186    79.494    74.968     0.000    18.394     0.000    96.586     0.350     0.458     0.056     0.002     0.001     0.044    78.166     0.045     0.000 .00000E+00 0.000E+00 0.000E+00 0.000E+00 0.000E+00 0.000E+00
BIGSUB  13        0    9.11502E+00   166.700     0.000   150.349    79.516    74.923     0.000    18.380     0.000    96.569     0.436     0.460     0.057     0.002     0.000     0.044    78.165     0.045     0.000 .00000E+00 0.000E+00 0.000E+00 0.000E+00 0.000E+00 0.000E+00
BIGSUB  14        0    9.37655E-01   166.700     0.000   150.396    79.523    74.911     0.000    18.376     0.000    96.565     0.379     0.462     0.057     0.002     0.001     0.044    78.164     0.045     0.000 .00000E+00 0.000E+00 0.000E+00 0.000E+00 0.000E+00 0.000E+00
BIGSUB  15        0    9.48428E-01   166.700     0.000   150.487    80.526    82.047     0.426    17.115     0.694    96.169     0.493     0.400     0.049     0.002     0.000     0.038    78.298     0.047     0.000 .00000E+00 0.000E+00 0.000E+00 0.000E+00 0.000E+00 0.000E+00
BIGSUB  16        0    9.90906E-01   166.700     0.000   150.498    81.947    96.606     1.365    14.654     3.268    96.523     0.432     0.333     0.041     0.002     0.000     0.032    78.442     0.051     0.000 .00000E+00 0.000E+00 0.000E+00 0.000E+00 0.000E+00 0.000E+00
BIGSUB  17        0    9.53148E-01   166.700     0.000   150.047    79.474    75.005     0.000    18.405     0.000    96.598     0.323     0.454     0.056     0.002     0.001     0.043    78.167     0.046     0.000 .00000E+00 0.000E+00 0.000E+00 0.000E+00 0.000E+00 0.000E+00
BIGSUB  18        0    9.11290E-02   166.700     0.000   150.404    81.570    79.193     0.925    19.985     0.000    93.644     0.161     0.423     0.052     0.002     0.001     0.040    73.541     0.055     0.000 .00000E+00 0.000E+00 0.000E+00 0.000E+00 0.000E+00 0.000E+00
BIGSUB  19        0    9.50275E-01   166.700     0.000   150.324    79.531    74.950     0.127    18.387     0.286    96.715     0.408     0.463     0.057     0.002     0.000     0.044    78.005     0.045     0.000 .00000E+00 0.000E+00 0.000E+00 0.000E+00 0.000E+00 0.000E+00
BIGSUB  20        0    9.27190E-01   166.700     0.000   150.376    79.520    74.917     0.000    18.378     0.000    96.568     0.320     0.453     0.056     0.002     0.001     0.043    78.164     0.046     0.000 .00000E+00 0.000E+00 0.000E+00 0.000E+00 0.000E+00 0.000E+00
BIGSUB  21        0    9.13749E+00   166.700     0.000   150.161    81.126    78.890     0.623    19.963     0.000    94.633     0.300     0.492     0.060     0.002     0.001     0.047    74.586     0.052     0.000 .00000E+00 0.000E+00 0.000E+00 0.000E+00 0.000E+00 0.000E+00
BIGSUB  22        0    9.16827E-01   166.700     0.000   150.515    79.539    74.879     0.000    18.367     0.000    96.556     0.294     0.446     0.055     0.002     0.001     0.042    78.164     0.046     0.000 .00000E+00 0.000E+00 0.000E+00 0.000E+00 0.000E+00 0.000E+00
BIGSUB  23        0    9.33038E-01   166.700     0.000   150.321    81.008    78.738     0.872    19.952     0.869    95.524     0.257     0.468     0.057     0.002     0.001     0.044    74.599     0.050     0.000 .00000E+00 0.000E+00 0.000E+00 0.000E+00 0.000E+00 0.000E+00
BIGSUB  24        0    9.12518E-01   166.700     0.000   150.394    80.196    76.702     0.000    19.214     0.000    96.279     0.247     0.446     0.055     0.002     0.001     0.042    77.034     0.046     0.000 .00000E+00 0.000E+00 0.000E+00 0.000E+00 0.000E+00 0.000E+00
BIGSUB  25        0    9.22060E-01   166.700     0.000   150.428    80.414    77.418     0.000    19.543     0.000    96.243     0.266     0.460     0.056     0.002     0.001     0.044    76.667     0.046     0.000 .00000E+00 0.000E+00 0.000E+00 0.000E+00 0.000E+00 0.000E+00
BIGSUB  26        0    9.22470E-01   166.700     0.000   150.465    79.532    74.892     0.000    18.371     0.000    96.559     0.346     0.457     0.056     0.002     0.001     0.044    78.164     0.045     0.000 .00000E+00 0.000E+00 0.000E+00 0.000E+00 0.000E+00 0.000E+00
BIGSUB  27        0    9.31089E-01   166.700     0.000   150.562    80.384    77.057     0.000    19.386     0.000    96.181     0.276     0.460     0.057     0.002     0.001     0.044    76.762     0.045     0.000 .00000E+00 0.000E+00 0.000E+00 0.000E+00 0.000E+00 0.000E+00
BIGSUB  28        0    9.92300E-03   166.700     0.000   150.640    82.450    79.831     1.657    20.025     0.571    92.112     0.147     0.431     0.053     0.002     0.001     0.040    71.310     0.058     0.000 .00000E+00 0.000E+00 0.000E+00 0.000E+00 0.000E+00 0.000E+00
BIGSUB  29        0    9.82595E-01   166.700     0.000   150.591    79.690    75.734     0.823    18.265     2.002    97.629     0.449     0.450     0.055     0.002     0.000     0.043    77.257     0.045     0.001 .00000E+00 0.000E+00 0.000E+00 0.000E+00 0.000E+00 0.000E+00
BIGSUB  30        0    9.58480E-02   166.700     0.000   150.673    80.553    80.563     4.713    18.144    11.339   102.345     0.244     0.407     0.050     0.002     0.001     0.039    72.379     0.044     0.004 .00000E+00 0.000E+00 0.000E+00 0.000E+00 0.000E+00 0.000E+00
BIGSUB  31        0    9.27600E-01   166.700     0.000   150.668    83.303   105.005    11.847    18.332    30.646   111.512     0.278     0.369     0.045     0.002     0.001     0.035    61.322     0.041     0.008 .00000E+00 0.000E+00 0.000E+00 0.000E+00 0.000E+00 0.000E+00
BIGSUB   1        0   10.87315E-01   234.500     0.000   163.289    74.405    85.432     0.000    55.347     0.000   147.166     1.418     2.104     0.258     0.007     0.002     0.200    91.762     0.102     0.000 .00000E+00 0.000E+00 0.000E+00 0.000E+00 0.000E+00 0.000E+00
BIGSUB   2        0   10.16673E+00   234.500     0.000   163.297    74.392    85.396     0.000    55.331     0.000   147.197     1.534     2.111     0.259     0.006     0.002     0.201    91.811     0.102     0.000 .00000E+00 0.000E+00 0.000E+00 0.000E+00 0.000E+00 0.000E+00
BIGSUB   3        0   10.40631E-01   234.500     0.000   163.252    72.980    80.502     0.000    53.428     0.000   148.810     1.791     2.016     0.249     0.007     0.002     0.196    95.364     0.099     0.000 .00000E+00 0.000E+00 0.000E+00 0.000E+00 0.000E+00 0.000E+00
BIGSUB   4        0   10.30883E-01   234.500     0.000   163.167    73.234    81.476     0.000    52.463     0.000   148.574     1.358     1.979     0.243     0.007     0.002     0.189    96.089     0.099     0.000 .00000E+00 0.000E+00 0.000E+00 0.000E+00 0.000E+00 0.000E+00
BIGSUB   5        0   10.61151E-01   234.500     0.000   163.283    72.002    76.961     0.133    58.854     0.173   150.100     1.518     2.604     0.327     0.009     0.003     0.272    91.049     0.097     0.000 .00000E+00 0.000E+00 0.000E+00 0.000E+00 0.000E+00 0.000E+00
BIGSUB   6        0   10.65871E-01   234.500     0.000   163.162    71.323    74.610     0.252    62.538     0.328   150.998     1.319     3.075     0.390     0.011     0.004     0.331    88.101     0.097     0.000 .00000E+00 0.000E+00 0.000E+00 0.000E+00 0.000E+00 0.000E+00
BIGSUB   7        0   10.55918E-01   234.500     0.000   163.408    74.474    85.496     0.149    55.362     0.194   147.112     1.333     2.093     0.257     0.007     0.002     0.199    91.487     0.102     0.000 .00000E+00 0.000E+00 0.000E+00 0.000E+00 0.000E+00 0.000E+00
BIGSUB   8        0   10.64948E-01   234.500     0.000   163.155    75.692    88.419     0.506    56.676     0.659   144.439     1.204     2.217     0.272     0.006     0.002     0.210    86.909     0.107     0.000 .00000E+00 0.000E+00 0.000E+00 0.000E+00 0.000E+00 0.000E+00
[...]
BIGSUB  22        0   12.16827E-01   398.800     0.000   134.086    87.339    90.323     0.716    80.243     0.000   289.759     4.905     7.381     0.903     0.003     0.003     0.702   209.485     0.308     0.000 .00000E+00 0.000E+00 0.000E+00 0.000E+00 0.000E+00 0.000E+00
BIGSUB  23        0   12.33038E-01   398.800     0.000   134.231    88.646    90.337     5.774    86.830     0.588   289.594     4.079     7.349     0.899     0.004     0.003     0.696   202.096     0.338     0.000 .00000E+00 0.000E+00 0.000E+00 0.000E+00 0.000E+00 0.000E+00
BIGSUB  24        0   12.12518E-01   398.800     0.000   134.176    87.611    90.328     1.395    81.739     0.000   289.766     3.998     7.157     0.875     0.004     0.003     0.678   207.991     0.312     0.000 .00000E+00 0.000E+00 0.000E+00 0.000E+00 0.000E+00 0.000E+00
BIGSUB  25        0   12.22060E-01   398.800     0.000   134.151    87.701    90.327     1.710    82.329     0.000   289.841     4.241     7.266     0.889     0.004     0.003     0.689   207.475     0.315     0.000 .00000E+00 0.000E+00 0.000E+00 0.000E+00 0.000E+00 0.000E+00
BIGSUB  26        0   12.22470E-01   398.800     0.000   134.123    87.353    90.324     0.691    80.232     0.000   289.761     5.777     7.663     0.937     0.003     0.002     0.730   209.500     0.307     0.000 .00000E+00 0.000E+00 0.000E+00 0.000E+00 0.000E+00 0.000E+00
BIGSUB  27        0   12.31089E-01   398.800     0.000   134.051    87.615    90.323     1.560    82.056     0.000   289.853     4.441     7.321     0.895     0.004     0.003     0.695   207.760     0.313     0.000 .00000E+00 0.000E+00 0.000E+00 0.000E+00 0.000E+00 0.000E+00
BIGSUB  28        0   12.92300E-03   398.800     0.000   133.992    89.970    90.339    11.893    90.584     0.000   286.920     2.064     6.450     0.788     0.004     0.004     0.604   196.208     0.385     0.000 .00000E+00 0.000E+00 0.000E+00 0.000E+00 0.000E+00 0.000E+00
BIGSUB  29        0   12.82595E-01   398.800     0.000   134.029    87.421    91.088     3.568    79.869     1.332   288.348     7.498     8.173     1.000     0.003     0.002     0.781   207.056     0.303     0.001 .00000E+00 0.000E+00 0.000E+00 0.000E+00 0.000E+00 0.000E+00
BIGSUB  30        0   12.58480E-02   398.800     0.000   133.968    88.045    95.144    17.404    79.576     7.317   281.402     4.062     6.724     0.822     0.003     0.004     0.637   194.133     0.292     0.004 .00000E+00 0.000E+00 0.000E+00 0.000E+00 0.000E+00 0.000E+00
BIGSUB  31        0   12.27600E-01   398.800     0.000   133.972    90.150   117.327    45.272    78.083    18.947   266.090     4.077     5.628     0.688     0.003     0.006     0.530   168.171     0.261     0.008 .00000E+00 0.000E+00 0.000E+00 0.000E+00 0.000E+00 0.000E+00
BIGSUB   1        0 2016.87315E-01  3003.700     0.000  1726.316   836.559    90.342    25.088   753.072     0.000  2150.202     7.631    14.611     1.788     0.037     0.024     1.387  1395.551     1.292     0.000 .00000E+00 0.000E+00 0.000E+00 0.000E+00 0.000E+00 0.000E+00
BIGSUB   2        0 2016.16673E+00  3003.700     0.000  1726.309   836.380    90.342    24.876   752.653     0.000  2150.583     8.258    14.956     1.830     0.037     0.023     1.421  1396.363     1.290     0.000 .00000E+00 0.000E+00 0.000E+00 0.000E+00 0.000E+00 0.000E+00
BIGSUB   3        0 2016.40631E-01  3003.700     0.000  1726.348   828.136    89.435    12.516   745.758     0.000  2171.387    10.035    15.629     1.914     0.039     0.021     1.488  1424.805     1.246     0.000 .00000E+00 0.000E+00 0.000E+00 0.000E+00 0.000E+00 0.000E+00
BIGSUB   4        0 2016.30883E-01  3003.700     0.000  1726.424   827.395    90.339    14.928   731.162     0.000  2168.992     7.485    14.159     1.732     0.039     0.023     1.345  1436.842     1.265     0.000 .00000E+00 0.000E+00 0.000E+00 0.000E+00 0.000E+00 0.000E+00
BIGSUB   5        0 2016.61151E-01  3003.700     0.000  1726.321   832.129    85.254    11.798   815.374     2.056  2174.042     9.375    15.615     1.915     0.038     0.024     1.473  1355.879     1.163     0.000 .00000E+00 0.000E+00 0.000E+00 0.000E+00 0.000E+00 0.000E+00
BIGSUB   6        0 2016.65871E-01  3003.700     0.000  1726.428   834.973    82.424    11.794   862.306     3.902  2175.732     8.906    15.588     1.914     0.038     0.026     1.461  1308.828     1.107     0.001 .00000E+00 0.000E+00 0.000E+00 0.000E+00 0.000E+00 0.000E+00
BIGSUB   7        0 2016.55918E-01  3003.700     0.000  1726.208   836.949    90.339    27.806   754.148     2.310  2149.602     7.183    14.353     1.756     0.037     0.025     1.361  1391.415     1.292     0.000 .00000E+00 0.000E+00 0.000E+00 0.000E+00 0.000E+00 0.000E+00
BIGSUB   8        0 2016.64948E-01  3003.700     0.000  1726.435   851.403    90.357    53.274   779.503    26.959  2135.671     6.186    13.992     1.712     0.034     0.028     1.325  1326.027     1.318     0.001 .00000E+00 0.000E+00 0.000E+00 0.000E+00 0.000E+00 0.000E+00
BIGSUB   9        0 2016.48839E-01  3003.700     0.000  1726.241   827.218    90.333    14.848   731.153     0.000  2169.256     7.949    14.423     1.765     0.039     0.022     1.371  1437.121     1.265     0.000 .00000E+00 0.000E+00 0.000E+00 0.000E+00 0.000E+00 0.000E+00
BIGSUB  10        0 2016.53661E-01  3003.700     0.000  1726.217   827.384    90.332    17.477   731.633     2.341  2168.935     7.898    14.388     1.761     0.039     0.023     1.367  1433.834     1.261     0.000 .00000E+00 0.000E+00 0.000E+00 0.000E+00 0.000E+00 0.000E+00
BIGSUB  11        0 2016.62895E-01  3003.700     0.000  1726.213   827.172    90.332    13.446   730.845     0.000  2170.634     9.994    15.545     1.902     0.039     0.021     1.482  1438.899     1.264     0.000 .00000E+00 0.000E+00 0.000E+00 0.000E+00 0.000E+00 0.000E+00
BIGSUB  12        0 2016.12004E+00  3003.700     0.000  1726.223   827.177    90.332    14.062   730.842     0.000  2170.047     9.532    15.302     1.873     0.039     0.021     1.458  1438.274     1.264     0.000 .00000E+00 0.000E+00 0.000E+00 0.000E+00 0.000E+00 0.000E+00
BIGSUB  13        0 2016.11502E+00  3003.700     0.000  1726.091   827.066    90.327    13.123   730.895     0.000  2171.051    11.865    16.533     2.023     0.038     0.020     1.578  1439.288     1.261     0.000 .00000E+00 0.000E+00 0.000E+00 0.000E+00 0.000E+00 0.000E+00
BIGSUB  14        0 2016.37655E-01  3003.700     0.000  1726.052   827.026    90.326    13.148   730.914     0.000  2171.069    10.314    15.715     1.923     0.039     0.020     1.498  1439.286     1.263     0.000 .00000E+00 0.000E+00 0.000E+00 0.000E+00 0.000E+00 0.000E+00
BIGSUB  15        0 2016.48428E-01  3003.700     0.000  1725.977   834.265    97.432    22.652   695.946    10.300  2165.302    13.495    16.950     2.074     0.043     0.021     1.616  1457.622     1.390     0.001 .00000E+00 0.000E+00 0.000E+00 0.000E+00 0.000E+00 0.000E+00
BIGSUB  16        0 2016.90906E-01  3003.700     0.000  1725.968   848.812   111.258    48.195   627.766    34.485  2151.167    11.980    15.473     1.892     0.036     0.023     1.469  1485.956     1.450     0.003 .00000E+00 0.000E+00 0.000E+00 0.000E+00 0.000E+00 0.000E+00
BIGSUB  17        0 2016.53148E-01  3003.700     0.000  1726.335   827.278    90.336    13.948   730.792     0.000  2170.048     8.763    14.870     1.820     0.039     0.022     1.415  1438.332     1.266     0.000 .00000E+00 0.000E+00 0.000E+00 0.000E+00 0.000E+00 0.000E+00
BIGSUB  18        0 2016.11290E-02  3003.700     0.000  1726.046   845.646    90.339    37.341   771.204     9.882  2139.421     4.081    12.414     1.518     0.037     0.033     1.165  1356.046     1.331     0.000 .00000E+00 0.000E+00 0.000E+00 0.000E+00 0.000E+00 0.000E+00
BIGSUB  19        0 2016.50275E-01  3003.700     0.000  1726.112   827.255    90.328    15.546   731.148     2.569  2171.187    11.112    16.114     1.972     0.038     0.020     1.537  1436.471     1.259     0.000 .00000E+00 0.000E+00 0.000E+00 0.000E+00 0.000E+00 0.000E+00
BIGSUB  20        0 2016.27190E-01  3003.700     0.000  1726.069   827.035    90.327    13.582   730.910     0.000  2170.650     8.711    14.843     1.816     0.039     0.022     1.413  1438.841     1.267     0.000 .00000E+00 0.000E+00 0.000E+00 0.000E+00 0.000E+00 0.000E+00
BIGSUB  21        0 2016.13749E+00  3003.700     0.000  1726.244   840.394    90.342    29.943   761.272     0.000  2141.778     7.724    14.772     1.807     0.036     0.024     1.402  1378.646     1.301     0.000 .00000E+00 0.000E+00 0.000E+00 0.000E+00 0.000E+00 0.000E+00
BIGSUB  22        0 2016.16827E-01  3003.700     0.000  1725.954   826.927    90.323    13.679   730.961     0.000  2170.672     8.012    14.451     1.768     0.039     0.022     1.374  1438.807     1.269     0.000 .00000E+00 0.000E+00 0.000E+00 0.000E+00 0.000E+00 0.000E+00
BIGSUB  23        0 2016.33038E-01  3003.700     0.000  1726.114   838.086    90.337    34.333   756.458     7.815  2147.770     6.650    14.037     1.717     0.037     0.026     1.330  1381.410     1.291     0.001 .00000E+00 0.000E+00 0.000E+00 0.000E+00 0.000E+00 0.000E+00
BIGSUB  24        0 2016.12518E-01  3003.700     0.000  1726.054   828.881    90.328    16.892   735.602     0.000  2165.652     6.509    13.686     1.674     0.039     0.025     1.297  1428.947     1.273     0.000 .00000E+00 0.000E+00 0.000E+00 0.000E+00 0.000E+00 0.000E+00
BIGSUB  25        0 2016.22060E-01  3003.700     0.000  1726.026   829.912    90.327    17.886   737.817     0.000  2163.681     6.900    13.950     1.707     0.039     0.024     1.323  1424.704     1.275     0.000 .00000E+00 0.000E+00 0.000E+00 0.000E+00 0.000E+00 0.000E+00
BIGSUB  26        0 2016.22470E-01  3003.700     0.000  1725.995   826.971    90.324    13.248   730.940     0.000  2171.032     9.437    15.252     1.866     0.039     0.021     1.453  1439.217     1.265     0.000 .00000E+00 0.000E+00 0.000E+00 0.000E+00 0.000E+00 0.000E+00
BIGSUB  27        0 2016.31089E-01  3003.700     0.000  1725.915   829.290    90.323    17.400   736.747     0.000  2164.770     7.227    14.119     1.727     0.039     0.024     1.340  1426.891     1.272     0.000 .00000E+00 0.000E+00 0.000E+00 0.000E+00 0.000E+00 0.000E+00
BIGSUB  28        0 2016.92300E-03  3003.700     0.000  1725.849   854.673    90.339    55.776   786.393    30.226  2133.289     3.471    11.872     1.451     0.034     0.036     1.113  1313.339     1.354     0.000 .00000E+00 0.000E+00 0.000E+00 0.000E+00 0.000E+00 0.000E+00
BIGSUB  29        0 2016.82595E-01  3003.700     0.000  1725.890   828.279    91.088    30.695   728.553    18.426  2171.674    12.250    16.640     2.036     0.038     0.020     1.588  1422.852     1.246     0.004 .00000E+00 0.000E+00 0.000E+00 0.000E+00 0.000E+00 0.000E+00
BIGSUB  30        0 2016.58480E-02  3003.700     0.000  1725.822   836.743    95.144   114.287   727.490   102.736  2168.458     6.639    13.027     1.594     0.038     0.034     1.235  1331.757     1.190     0.023 .00000E+00 0.000E+00 0.000E+00 0.000E+00 0.000E+00 0.000E+00
BIGSUB  31        0 2016.27600E-01  3003.700     0.000  1725.825   868.823   117.327   270.367   723.183   257.464  2144.225     7.165    12.443     1.522     0.035     0.056     1.179  1148.437     1.056     0.050 .00000E+00 0.000E+00 0.000E+00 0.000E+00 0.000E+00 0.000E+00
BIGSUB   1        0  4.0.87315E-01  3445.525     0.000  1685.149   927.298    90.342    26.070   918.905     0.000  2491.775    23.531    41.675     5.098     0.036     0.032     4.025  1571.522     1.658     0.000 .00000E+00 0.000E+00 0.000E+00 0.000E+00 0.000E+00 0.000E+00
BIGSUB   2        0  4.0.16673E+00  3445.525     0.000  1685.157   927.124    90.342    25.813   918.521     0.000  2492.190    25.478    41.964     5.133     0.036     0.031     4.059  1572.335     1.655     0.000 .00000E+00 0.000E+00 0.000E+00 0.000E+00 0.000E+00 0.000E+00
BIGSUB   3        0  4.0.40631E-01  3445.525     0.000  1685.113   917.911    89.435    12.001   911.020     0.000  2514.604    31.888    42.856     5.252     0.039     0.030     4.183  1602.957     1.598     0.000 .00000E+00 0.000E+00 0.000E+00 0.000E+00 0.000E+00 0.000E+00
BIGSUB   4        0  4.0.30883E-01  3445.525     0.000  1685.029   917.370    90.339    14.470   894.293     0.000  2512.590    23.950    41.639     5.093     0.038     0.031     4.025  1617.540     1.619     0.000 .00000E+00 0.000E+00 0.000E+00 0.000E+00 0.000E+00 0.000E+00
BIGSUB   5        0  4.0.61151E-01  3445.525     0.000  1685.143   921.049    85.254    11.188   991.688     2.163  2515.388    28.177    44.522     5.500     0.049     0.042     4.418  1520.960     1.486     0.000 .00000E+00 0.000E+00 0.000E+00 0.000E+00 0.000E+00 0.000E+00
BIGSUB   6        0  4.0.65871E-01  3445.525     0.000  1685.024   923.233    82.424    11.187  1046.088     4.107  2515.815    25.476    45.720     5.677     0.055     0.049     4.584  1465.049     1.410     0.001 .00000E+00 0.000E+00 0.000E+00 0.000E+00 0.000E+00 0.000E+00
BIGSUB   7        0  4.0.55918E-01  3445.525     0.000  1685.266   927.755    90.339    29.186   919.846     2.431  2490.800    22.127    41.377     5.061     0.036     0.033     3.991  1567.017     1.659     0.000 .00000E+00 0.000E+00 0.000E+00 0.000E+00 0.000E+00 0.000E+00
BIGSUB   8        0  4.0.64948E-01  3445.525     0.000  1685.017   941.415    90.357    59.455   944.117    25.062  2471.237    18.705    40.786     4.988     0.033     0.037     3.919  1499.013     1.698     0.002 .00000E+00 0.000E+00 0.000E+00 0.000E+00 0.000E+00 0.000E+00
BIGSUB   9        0  4.0.48839E-01  3445.525     0.000  1685.231   917.306    90.333    14.376   894.163     0.000  2512.747    25.428    41.859     5.120     0.038     0.030     4.051  1617.833     1.618     0.000 .00000E+00 0.000E+00 0.000E+00 0.000E+00 0.000E+00 0.000E+00
BIGSUB  10        0  4.0.53661E-01  3445.525     0.000  1685.257   917.527    90.332    17.340   894.803     2.463  2512.180    25.240    41.783     5.111     0.038     0.031     4.043  1614.012     1.613     0.000 .00000E+00 0.000E+00 0.000E+00 0.000E+00 0.000E+00 0.000E+00
BIGSUB  11        0  4.0.62895E-01  3445.525     0.000  1685.261   917.230    90.332    12.994   893.673     0.000  2514.133    32.003    42.574     5.209     0.037     0.027     4.139  1619.781     1.621     0.000 .00000E+00 0.000E+00 0.000E+00 0.000E+00 0.000E+00 0.000E+00
BIGSUB  12        0  4.0.12004E+00  3445.525     0.000  1685.250   917.227    90.332    13.593   893.676     0.000  2513.570    30.525    42.446     5.193     0.037     0.028     4.123  1619.183     1.619     0.000 .00000E+00 0.000E+00 0.000E+00 0.000E+00 0.000E+00 0.000E+00
BIGSUB  13        0  4.0.11502E+00  3445.525     0.000  1685.391   917.208    90.327    12.675   893.677     0.000  2514.460    37.977    42.990     5.260     0.037     0.025     4.193  1620.120     1.618     0.000 .00000E+00 0.000E+00 0.000E+00 0.000E+00 0.000E+00 0.000E+00
BIGSUB  14        0  4.0.37655E-01  3445.525     0.000  1685.431   917.195    90.326    12.698   893.682     0.000  2514.452    33.012    42.655     5.219     0.037     0.027     4.150  1620.107     1.621     0.000 .00000E+00 0.000E+00 0.000E+00 0.000E+00 0.000E+00 0.000E+00
BIGSUB  15        0  4.0.48428E-01  3445.525     0.000  1685.509   924.509    97.432    24.023   852.518     9.567  2505.950    43.292    41.629     5.093     0.047     0.027     4.060  1642.625     1.746     0.001 .00000E+00 0.000E+00 0.000E+00 0.000E+00 0.000E+00 0.000E+00
BIGSUB  16        0  4.0.90906E-01  3445.525     0.000  1685.518   939.006   111.258    53.926   772.227    33.355  2486.866    38.688    39.040     4.773     0.038     0.030     3.780  1678.522     1.801     0.004 .00000E+00 0.000E+00 0.000E+00 0.000E+00 0.000E+00 0.000E+00
BIGSUB  17        0  4.0.53148E-01  3445.525     0.000  1685.128   917.251    90.336    13.488   893.669     0.000  2513.643    28.070    42.190     5.161     0.038     0.029     4.091  1619.268     1.622     0.000 .00000E+00 0.000E+00 0.000E+00 0.000E+00 0.000E+00 0.000E+00
BIGSUB  18        0  4.0.11290E-02  3445.525     0.000  1685.438   936.068    90.339    40.828   935.972     7.572  2476.702    12.354    38.604     4.720     0.036     0.044     3.677  1531.059     1.712     0.000 .00000E+00 0.000E+00 0.000E+00 0.000E+00 0.000E+00 0.000E+00
BIGSUB  19        0  4.0.50275E-01  3445.525     0.000  1685.369   917.374    90.328    15.465   893.910     2.704  2514.351    35.569    42.757     5.232     0.037     0.026     4.166  1616.933     1.617     0.001 .00000E+00 0.000E+00 0.000E+00 0.000E+00 0.000E+00 0.000E+00
BIGSUB  20        0  4.0.27190E-01  3445.525     0.000  1685.414   917.193    90.327    13.118   893.684     0.000  2514.057    27.884    42.169     5.159     0.038     0.029     4.089  1619.687     1.625     0.000 .00000E+00 0.000E+00 0.000E+00 0.000E+00 0.000E+00 0.000E+00
BIGSUB  21        0  4.0.13749E+00  3445.525     0.000  1685.228   931.101    90.342    31.890   926.779     0.000  2482.504    23.589    41.766     5.109     0.035     0.032     4.033  1554.080     1.673     0.000 .00000E+00 0.000E+00 0.000E+00 0.000E+00 0.000E+00 0.000E+00
BIGSUB  22        0  4.0.16827E-01  3445.525     0.000  1685.533   917.163    90.323    13.204   893.693     0.000  2514.006    25.638    41.888     5.124     0.038     0.030     4.055  1619.624     1.627     0.000 .00000E+00 0.000E+00 0.000E+00 0.000E+00 0.000E+00 0.000E+00
BIGSUB  23        0  4.0.33038E-01  3445.525     0.000  1685.367   928.927    90.337    36.690   922.130     8.224  2488.322    20.435    40.914     5.004     0.036     0.036     3.940  1556.083     1.658     0.002 .00000E+00 0.000E+00 0.000E+00 0.000E+00 0.000E+00 0.000E+00
BIGSUB  24        0  4.0.12518E-01  3445.525     0.000  1685.429   919.428    90.328    16.527   899.873     0.000  2508.607    20.624    41.054     5.021     0.038     0.034     3.956  1607.872     1.629     0.000 .00000E+00 0.000E+00 0.000E+00 0.000E+00 0.000E+00 0.000E+00
BIGSUB  25        0  4.0.22060E-01  3445.525     0.000  1685.459   920.579    90.327    17.608   902.840     0.000  2506.442    21.781    41.294     5.051     0.038     0.033     3.983  1602.686     1.632     0.000 .00000E+00 0.000E+00 0.000E+00 0.000E+00 0.000E+00 0.000E+00
BIGSUB  26        0  4.0.22470E-01  3445.525     0.000  1685.490   917.179    90.324    12.791   893.687     0.000  2514.382    30.202    42.413     5.189     0.037     0.028     4.119  1620.026     1.624     0.000 .00000E+00 0.000E+00 0.000E+00 0.000E+00 0.000E+00 0.000E+00
BIGSUB  27        0  4.0.31089E-01  3445.525     0.000  1685.573   920.016    90.323    17.054   901.348     0.000  2507.527    22.853    41.480     5.074     0.038     0.032     4.005  1605.291     1.628     0.000 .00000E+00 0.000E+00 0.000E+00 0.000E+00 0.000E+00 0.000E+00
BIGSUB  28        0  4.0.92300E-03  3445.525     0.000  1685.639   945.563    90.339    62.509   950.361    27.189  2466.393    10.541    37.762     4.616     0.034     0.049     3.586  1485.644     1.738     0.001 .00000E+00 0.000E+00 0.000E+00 0.000E+00 0.000E+00 0.000E+00
BIGSUB  29        0  4.0.82595E-01  3445.525     0.000  1685.598   918.592    91.088    32.759   890.892    18.963  2512.995    39.191    42.681     5.223     0.036     0.026     4.164  1601.464     1.599     0.005 .00000E+00 0.000E+00 0.000E+00 0.000E+00 0.000E+00 0.000E+00
BIGSUB  30        0  4.0.58480E-02  3445.525     0.000  1685.667   927.385    95.144   128.028   888.985   105.996  2500.937    21.230    38.760     4.741     0.036     0.045     3.736  1499.464     1.525     0.030 .00000E+00 0.000E+00 0.000E+00 0.000E+00 0.000E+00 0.000E+00
BIGSUB  31        0  4.0.27600E-01  3445.524     0.000  1685.663   958.423   117.327   308.677   882.570   270.140  2462.832    21.710    33.002     4.036     0.034     0.073     3.160  1294.497     1.339     0.066 .00000E+00 0.000E+00 0.000E+00 0.000E+00 0.000E+00 0.000E+00
