1
    SWAT Dec 23 2016    VER 2016/Rev 664                                                                 0/ 0/   0      0: 0: 0

    General Input/Output section (file.cio):                                        
    12/20/2019 06:57:11 QSWAT Workflow v1.5.2                                       
                                                                                    


       SUB      GIS  MON   AREAkm2  PRECIPmm SNOMELTmm     PETmm      ETmm      SWmm    PERCmm    SURQmm    GW_Qmm    WYLDmm  SYLDt/ha ORGNkg/ha ORGPkg/haNSURQkg/ha SOLPkg/ha SEDPkg/ha LAT Q(mm)LATNO3kg/hGWNO3kg/haCHOLAmic/LCBODU mg/L DOXQ mg/L TNO3kg/ha   QTILEmm TVAPkg/ha
BIGSUB   1        0    1.44973E-01   288.000     0.000   152.468   107.748    90.254     0.677    17.900     0.600   168.499     1.272     3.009     0.368     0.003     0.001     0.295   149.924     0.192     0.000 .00000E+00 0.000E+00 0.000E+00 0.000E+00 0.000E+00 0.000E+00
BIGSUB   2        0    1.38097E-01   301.600     0.000   152.459   107.899    89.742     0.074    20.855     0.064   182.345     2.249     3.945     0.482     0.003     0.001     0.390   161.391     0.199     0.000 .00000E+00 0.000E+00 0.000E+00 0.000E+00 0.000E+00 0.000E+00
BIGSUB   3        0    1.17181E-01   288.000     0.000   152.472   107.104    88.870     0.154    17.476     0.136   170.294     1.219     2.947     0.360     0.003     0.001     0.289   152.648     0.191     0.000 .00000E+00 0.000E+00 0.000E+00 0.000E+00 0.000E+00 0.000E+00
BIGSUB   4        0    1.11880E-01   288.000     0.000   152.472   107.049    88.694     0.111    17.434     0.098   170.502     1.390     3.057     0.374     0.003     0.001     0.301   152.943     0.191     0.000 .00000E+00 0.000E+00 0.000E+00 0.000E+00 0.000E+00 0.000E+00
BIGSUB   5        0    1.12438E-01   301.600     0.000   152.421   107.882    89.747     0.000    20.857     0.000   182.359     2.513     4.176     0.511     0.003     0.001     0.413   161.473     0.199     0.000 .00000E+00 0.000E+00 0.000E+00 0.000E+00 0.000E+00 0.000E+00
BIGSUB   6        0    1.20997E-01   259.900     0.000   157.075   106.424    84.874     0.000    10.715     0.000   145.052     1.017     2.244     0.274     0.002     0.001     0.221   134.334     0.160     0.000 .00000E+00 0.000E+00 0.000E+00 0.000E+00 0.000E+00 0.000E+00
BIGSUB   7        0    1.93690E-02   288.000     0.000   152.482   107.048    88.689     0.000    17.429     0.000   170.506     1.679     3.261     0.399     0.003     0.001     0.322   153.056     0.191     0.000 .00000E+00 0.000E+00 0.000E+00 0.000E+00 0.000E+00 0.000E+00
BIGSUB   8        0    1.91440E-02   301.600     0.000   152.424   107.883    89.747     0.000    20.857     0.000   182.357     2.499     4.164     0.509     0.003     0.001     0.412   161.472     0.199     0.000 .00000E+00 0.000E+00 0.000E+00 0.000E+00 0.000E+00 0.000E+00
BIGSUB   9        0    1.17973E-01   301.600     0.000   152.422   107.886    89.749     0.079    20.859     0.069   182.352     2.579     4.233     0.518     0.003     0.001     0.419   161.391     0.198     0.000 .00000E+00 0.000E+00 0.000E+00 0.000E+00 0.000E+00 0.000E+00
BIGSUB  10        0    1.20547E-01   301.600     0.000   152.471   107.901    89.753     0.578    20.889     0.496   182.310     1.901     3.663     0.448     0.003     0.001     0.361   160.875     0.199     0.000 .00000E+00 0.000E+00 0.000E+00 0.000E+00 0.000E+00 0.000E+00
BIGSUB  11        0    1.18981E-01   288.000     0.000   152.514   107.017    88.720     0.795    18.191     0.695   170.438     2.113     3.576     0.437     0.004     0.001     0.354   151.504     0.200     0.000 .00000E+00 0.000E+00 0.000E+00 0.000E+00 0.000E+00 0.000E+00
BIGSUB  12        0    1.11619E-01   288.000     0.000   152.509   106.465    86.397     0.147    22.057     0.126   171.294     3.386     4.718     0.577     0.005     0.001     0.468   149.086     0.184     0.000 .00000E+00 0.000E+00 0.000E+00 0.000E+00 0.000E+00 0.000E+00
BIGSUB  13        0    1.17631E-01   301.600     0.000   152.411   107.879    89.749     0.000    20.858     0.000   182.359     3.136     4.702     0.575     0.003     0.001     0.466   161.474     0.198     0.000 .00000E+00 0.000E+00 0.000E+00 0.000E+00 0.000E+00 0.000E+00
BIGSUB  14        0    1.10269E-01   301.600     0.000   152.434   107.892    89.748     0.137    20.860     0.119   182.343     2.753     4.383     0.536     0.003     0.001     0.434   161.331     0.198     0.000 .00000E+00 0.000E+00 0.000E+00 0.000E+00 0.000E+00 0.000E+00
BIGSUB  15        0    1.94860E-02   301.600     0.000   152.405   107.877    89.750     0.000    20.859     0.000   182.362     2.569     4.226     0.517     0.003     0.001     0.418   161.475     0.199     0.000 .00000E+00 0.000E+00 0.000E+00 0.000E+00 0.000E+00 0.000E+00
BIGSUB  16        0    1.11835E-01   288.000     0.000   152.533   110.439    80.458     0.087    30.151     0.000   167.275     2.044     3.350     0.410     0.003     0.004     0.332   137.103     0.170     0.000 .00000E+00 0.000E+00 0.000E+00 0.000E+00 0.000E+00 0.000E+00
BIGSUB  17        0    1.11232E-01   288.000     0.000   152.548    99.104    58.217     0.292    78.069     0.209   181.199    28.322    23.800     2.912     0.030     0.004     2.380   102.907     0.111     0.000 .00000E+00 0.000E+00 0.000E+00 0.000E+00 0.000E+00 0.000E+00
BIGSUB  18        0    1.12069E-01   259.900     0.000   157.123   106.433    84.852     0.000    10.705     0.000   145.041     1.338     2.442     0.299     0.002     0.001     0.241   134.334     0.159     0.000 .00000E+00 0.000E+00 0.000E+00 0.000E+00 0.000E+00 0.000E+00
BIGSUB  19        0    1.20511E-01   301.600     0.000   152.417   107.886    89.751     0.138    20.862     0.121   182.347     3.118     4.686     0.573     0.003     0.001     0.464   161.332     0.198     0.000 .00000E+00 0.000E+00 0.000E+00 0.000E+00 0.000E+00 0.000E+00
BIGSUB  20        0    1.93600E-02   301.600     0.000   152.499   107.916    89.737     0.152    20.853     0.133   182.326     2.060     3.793     0.464     0.003     0.001     0.375   161.305     0.199     0.000 .00000E+00 0.000E+00 0.000E+00 0.000E+00 0.000E+00 0.000E+00
BIGSUB  21        0    1.10089E-01   259.900     0.000   157.148   110.070    77.164     0.075    20.676     0.000   141.354     1.317     2.271     0.278     0.002     0.003     0.224   120.673     0.143     0.000 .00000E+00 0.000E+00 0.000E+00 0.000E+00 0.000E+00 0.000E+00
BIGSUB  22        0    1.28305E-01   301.600     0.000   152.407   107.885    89.754     0.199    20.865     0.174   182.343     3.522     5.007     0.612     0.003     0.001     0.497   161.271     0.197     0.000 .00000E+00 0.000E+00 0.000E+00 0.000E+00 0.000E+00 0.000E+00
BIGSUB  23        0    1.94590E-02   301.600     0.000   152.423   107.883    89.747     0.000    20.857     0.000   182.355     3.093     4.667     0.571     0.003     0.001     0.463   161.472     0.198     0.000 .00000E+00 0.000E+00 0.000E+00 0.000E+00 0.000E+00 0.000E+00
BIGSUB  24        0    1.15804E-01   301.600     0.000   152.383   107.872    89.756     0.088    20.864     0.077   182.359     3.289     4.824     0.590     0.003     0.001     0.478   161.388     0.197     0.000 .00000E+00 0.000E+00 0.000E+00 0.000E+00 0.000E+00 0.000E+00
BIGSUB  25        0    1.20430E-01   301.600     0.000   152.417   107.881    89.748     0.000    20.857     0.000   182.359     2.820     4.441     0.543     0.003     0.001     0.440   161.473     0.198     0.000 .00000E+00 0.000E+00 0.000E+00 0.000E+00 0.000E+00 0.000E+00
BIGSUB  26        0    1.10980E-01   301.600     0.000   152.440   107.894    89.747     0.129    20.859     0.112   182.342     2.859     4.473     0.547     0.003     0.001     0.443   161.338     0.198     0.000 .00000E+00 0.000E+00 0.000E+00 0.000E+00 0.000E+00 0.000E+00
BIGSUB  27        0    1.18243E-01   301.600     0.000   152.399   107.653    89.337     0.078    23.445     0.068   182.769     2.789     4.543     0.555     0.004     0.001     0.450   159.229     0.200     0.000 .00000E+00 0.000E+00 0.000E+00 0.000E+00 0.000E+00 0.000E+00
BIGSUB  28        0    1.98370E-02   301.600     0.000   152.401   107.886    89.757     0.290    20.867     0.253   182.337     3.102     4.671     0.571     0.003     0.001     0.463   161.180     0.197     0.000 .00000E+00 0.000E+00 0.000E+00 0.000E+00 0.000E+00 0.000E+00
BIGSUB  29        0    1.12312E-01   301.600     0.000   152.413   107.879    89.749     0.000    20.858     0.000   182.358     3.193     4.748     0.581     0.003     0.001     0.471   161.474     0.198     0.000 .00000E+00 0.000E+00 0.000E+00 0.000E+00 0.000E+00 0.000E+00
BIGSUB  30        0    1.24588E-01   288.000     0.000   152.500   107.054    88.685     0.000    17.427     0.000   170.502     1.953     3.467     0.424     0.003     0.001     0.343   153.053     0.190     0.000 .00000E+00 0.000E+00 0.000E+00 0.000E+00 0.000E+00 0.000E+00
BIGSUB  31        0    1.17181E-01   288.000     0.000   152.572   121.560    55.457     0.421    69.028     0.000   156.198     1.407     2.222     0.272     0.002     0.012     0.220    87.143     0.108     0.000 .00000E+00 0.000E+00 0.000E+00 0.000E+00 0.000E+00 0.000E+00
BIGSUB  32        0    1.25614E-01   301.600     0.000   152.436   107.888    89.745     0.000    20.855     0.000   182.352     3.486     4.981     0.609     0.003     0.001     0.494   161.470     0.197     0.000 .00000E+00 0.000E+00 0.000E+00 0.000E+00 0.000E+00 0.000E+00
BIGSUB  33        0    1.10071E-01   274.400     0.000   157.150   114.364    73.202     0.172    33.135     0.000   150.662     1.324     2.427     0.297     0.002     0.005     0.240   117.515     0.144     0.000 .00000E+00 0.000E+00 0.000E+00 0.000E+00 0.000E+00 0.000E+00
BIGSUB  34        0    1.11439E-01   274.400     0.000   157.181   124.402    51.116     0.404    64.122     0.000   140.522     0.965     1.651     0.202     0.002     0.011     0.163    76.381     0.093     0.000 .00000E+00 0.000E+00 0.000E+00 0.000E+00 0.000E+00 0.000E+00
BIGSUB  35        0    1.21816E-01   288.000     0.000   152.469   107.046    88.693     0.061    17.432     0.054   170.502     2.722     4.110     0.503     0.003     0.001     0.407   152.994     0.189     0.000 .00000E+00 0.000E+00 0.000E+00 0.000E+00 0.000E+00 0.000E+00
BIGSUB  36        0    1.10215E-01   301.600     0.000   152.391   107.866    89.743     0.000    20.918     0.000   182.373     3.117     4.688     0.573     0.003     0.001     0.465   161.428     0.198     0.000 .00000E+00 0.000E+00 0.000E+00 0.000E+00 0.000E+00 0.000E+00
BIGSUB  37        0    1.11286E-01   245.900     0.000   157.192   121.498    49.127     0.345    47.202     0.000   115.637     0.526     0.988     0.121     0.002     0.008     0.097    68.419     0.078     0.000 .00000E+00 0.000E+00 0.000E+00 0.000E+00 0.000E+00 0.000E+00
BIGSUB  38        0    1.11997E-01   316.100     0.000   147.895   107.406    91.910    18.181    25.686    15.540   194.877     1.767     3.601     0.440     0.003     0.002     0.355   152.976     0.187     0.006 .00000E+00 0.000E+00 0.000E+00 0.000E+00 0.000E+00 0.000E+00
BIGSUB  39        0    1.20763E-01   301.600     0.000   152.388   105.200    81.888     0.069    46.022     0.060   186.608     6.962     8.570     1.048     0.012     0.003     0.851   140.516     0.190     0.000 .00000E+00 0.000E+00 0.000E+00 0.000E+00 0.000E+00 0.000E+00
BIGSUB  40        0    1.16200E-01   301.600     0.000   152.375   107.050    88.245     0.000    30.277     0.000   183.872     2.672     4.846     0.592     0.006     0.002     0.478   153.579     0.204     0.000 .00000E+00 0.000E+00 0.000E+00 0.000E+00 0.000E+00 0.000E+00
BIGSUB  41        0    1.10071E-01   288.000     0.000   152.464   107.042    88.692     0.000    17.431     0.000   170.510     1.840     3.381     0.413     0.003     0.001     0.334   153.058     0.190     0.000 .00000E+00 0.000E+00 0.000E+00 0.000E+00 0.000E+00 0.000E+00
BIGSUB  42        0    1.11151E-01   316.100     0.000   147.857    97.483    78.320     0.000    37.052     0.000   203.113     0.075     0.214     0.028     0.021     0.011     0.022   166.056     0.342     0.000 .00000E+00 0.000E+00 0.000E+00 0.000E+00 0.000E+00 0.000E+00
BIGSUB  43        0    1.17856E-01   274.400     0.000   157.059   107.807    86.805     0.000    13.985     0.000   157.409     2.052     3.280     0.401     0.002     0.001     0.325   143.417     0.174     0.000 .00000E+00 0.000E+00 0.000E+00 0.000E+00 0.000E+00 0.000E+00
BIGSUB  44        0    1.17820E-01   245.900     0.000   157.132   105.734    79.553     0.252    10.334     0.216   131.986     0.834     1.697     0.207     0.002     0.001     0.167   121.425     0.138     0.000 .00000E+00 0.000E+00 0.000E+00 0.000E+00 0.000E+00 0.000E+00
BIGSUB  45        0    1.46755E-01   274.400     0.000   157.100   107.840    86.815     0.338    13.994     0.306   157.373     1.794     3.083     0.377     0.003     0.001     0.305   143.053     0.174     0.000 .00000E+00 0.000E+00 0.000E+00 0.000E+00 0.000E+00 0.000E+00
BIGSUB  46        0    1.20556E-01   301.600     0.000   152.303   106.422    87.144     0.127    37.383     0.107   185.006     2.464     5.139     0.628     0.008     0.002     0.506   147.503     0.207     0.000 .00000E+00 0.000E+00 0.000E+00 0.000E+00 0.000E+00 0.000E+00
BIGSUB  47        0    1.17325E-01   274.400     0.000   157.118   107.827    86.795     0.000    13.981     0.000   157.395     1.428     2.834     0.346     0.003     0.001     0.279   143.407     0.176     0.000 .00000E+00 0.000E+00 0.000E+00 0.000E+00 0.000E+00 0.000E+00
BIGSUB  48        0    1.24030E-01   274.400     0.000   157.111   107.833    86.804     0.153    13.987     0.138   157.385     1.551     2.914     0.356     0.003     0.001     0.288   143.247     0.175     0.000 .00000E+00 0.000E+00 0.000E+00 0.000E+00 0.000E+00 0.000E+00
BIGSUB  49        0    1.24192E-01   274.400     0.000   157.104   107.839    86.812     0.304    13.991     0.275   157.374     1.670     2.995     0.366     0.003     0.001     0.296   143.089     0.175     0.000 .00000E+00 0.000E+00 0.000E+00 0.000E+00 0.000E+00 0.000E+00
BIGSUB  50        0    1.27819E-01   316.100     0.000   147.829    99.115    80.652     0.322    35.299     0.268   201.935     0.643     1.090     0.135     0.018     0.009     0.109   166.346     0.318     0.000 .00000E+00 0.000E+00 0.000E+00 0.000E+00 0.000E+00 0.000E+00
BIGSUB  51        0    1.50193E-01   274.400     0.000   157.139   112.132    77.540     0.393    27.056     0.262   153.055     1.366     2.561     0.313     0.002     0.004     0.253   125.715     0.154     0.000 .00000E+00 0.000E+00 0.000E+00 0.000E+00 0.000E+00 0.000E+00
BIGSUB  52        0    1.42867E-01   316.100     0.000   147.859   103.299    86.605     0.103    29.775     0.085   199.014     2.513     3.637     0.445     0.010     0.005     0.361   169.124     0.258     0.000 .00000E+00 0.000E+00 0.000E+00 0.000E+00 0.000E+00 0.000E+00
BIGSUB  53        0    1.18027E-01   316.100     0.000   147.823    97.285    78.070     0.148    37.325     0.113   203.231     0.032     0.140     0.019     0.021     0.011     0.015   165.785     0.344     0.000 .00000E+00 0.000E+00 0.000E+00 0.000E+00 0.000E+00 0.000E+00
BIGSUB  54        0    1.31662E-01   316.100     0.000   147.812   100.214    82.244     0.321    33.658     0.262   201.162     1.056     1.695     0.209     0.016     0.008     0.169   167.217     0.302     0.000 .00000E+00 0.000E+00 0.000E+00 0.000E+00 0.000E+00 0.000E+00
BIGSUB  55        0    1.84600E-02   288.000     0.000   152.500   107.061    88.691     0.158    17.432     0.140   170.489     1.637     3.228     0.395     0.003     0.001     0.318   152.890     0.191     0.000 .00000E+00 0.000E+00 0.000E+00 0.000E+00 0.000E+00 0.000E+00
BIGSUB  56        0    1.30600E-03   274.400     0.000   157.211   142.568     9.441     0.779   121.867     0.000   121.897     0.000     0.000     0.000     0.002     0.023     0.000     0.000     0.000     0.000 .00000E+00 0.000E+00 0.000E+00 0.000E+00 0.000E+00 0.000E+00
BIGSUB  57        0    1.46251E-01   288.000     0.000   152.526   107.389    87.941     0.411    18.602     0.357   170.169     1.949     3.441     0.421     0.003     0.001     0.340   151.174     0.188     0.000 .00000E+00 0.000E+00 0.000E+00 0.000E+00 0.000E+00 0.000E+00
BIGSUB  58        0    1.45090E-02   301.600     0.000   152.446   107.903    89.750     0.308    20.864     0.269   182.324     2.824     4.439     0.543     0.003     0.001     0.440   161.153     0.198     0.000 .00000E+00 0.000E+00 0.000E+00 0.000E+00 0.000E+00 0.000E+00
BIGSUB  59        0    1.15246E-01   274.400     0.000   157.171   113.719    74.329     0.784    31.607     0.579   151.413     1.081     2.286     0.280     0.002     0.005     0.225   119.191     0.146     0.000 .00000E+00 0.000E+00 0.000E+00 0.000E+00 0.000E+00 0.000E+00
BIGSUB  60        0    1.49770E-02   274.400     0.000   157.209   142.567     9.440     0.779   122.318     0.000   122.348     0.000     0.000     0.000     0.002     0.023     0.000     0.000     0.000     0.000 .00000E+00 0.000E+00 0.000E+00 0.000E+00 0.000E+00 0.000E+00
BIGSUB  61        0    1.20970E-02   301.600     0.000   152.439   107.914    89.760     0.680    20.874     0.593   182.296     2.138     3.846     0.470     0.003     0.001     0.380   160.777     0.198     0.000 .00000E+00 0.000E+00 0.000E+00 0.000E+00 0.000E+00 0.000E+00
BIGSUB  62        0    1.68040E-02   288.000     0.000   152.502   107.055    88.685     0.000    17.427     0.000   170.501     1.651     3.240     0.396     0.003     0.001     0.319   153.052     0.191     0.000 .00000E+00 0.000E+00 0.000E+00 0.000E+00 0.000E+00 0.000E+00
BIGSUB  63        0    1.16875E-01   288.000     0.000   152.538   108.887    84.265     0.204    24.263     0.139   168.742     2.152     3.527     0.431     0.003     0.002     0.349   144.314     0.179     0.000 .00000E+00 0.000E+00 0.000E+00 0.000E+00 0.000E+00 0.000E+00
BIGSUB  64        0    1.36360E-02   301.600     0.000   152.491   107.922    89.744     0.391    20.862     0.341   182.310     1.749     3.551     0.434     0.003     0.001     0.350   161.062     0.200     0.000 .00000E+00 0.000E+00 0.000E+00 0.000E+00 0.000E+00 0.000E+00
BIGSUB  65        0    1.41670E-02   301.600     0.000   152.469   107.900    89.739     0.000    20.852     0.000   182.347     1.817     3.608     0.441     0.003     0.001     0.356   161.465     0.200     0.000 .00000E+00 0.000E+00 0.000E+00 0.000E+00 0.000E+00 0.000E+00
BIGSUB  66        0    1.84600E-03   301.600     0.000   152.451   108.077    89.859     5.053    20.993     4.408   181.923     1.635     3.400     0.416     0.003     0.001     0.335   156.315     0.194     0.002 .00000E+00 0.000E+00 0.000E+00 0.000E+00 0.000E+00 0.000E+00
BIGSUB  67        0    1.11700E-02   288.000     0.000   152.572    99.126    59.603     6.273    88.960     5.097   179.266    20.659    19.211     2.350     0.038     0.008     1.921    85.005     0.220     0.002 .00000E+00 0.000E+00 0.000E+00 0.000E+00 0.000E+00 0.000E+00
BIGSUB  68        0    1.44730E-02   288.000     0.000   152.524   107.076    88.691     0.295    17.435     0.261   170.473     1.570     3.177     0.388     0.003     0.001     0.313   152.745     0.191     0.000 .00000E+00 0.000E+00 0.000E+00 0.000E+00 0.000E+00 0.000E+00
BIGSUB  69        0    1.10503E-01   288.000     0.000   152.579   110.267    61.571     1.897    97.962     1.377   168.444     2.596     4.889     0.598     0.023     0.012     0.486    69.036     0.159     0.001 .00000E+00 0.000E+00 0.000E+00 0.000E+00 0.000E+00 0.000E+00
BIGSUB  70        0    1.23580E-02   316.100     0.000   147.874    99.969    81.851     0.000    33.938     0.000   201.364     0.732     1.330     0.164     0.016     0.008     0.132   167.413     0.307     0.000 .00000E+00 0.000E+00 0.000E+00 0.000E+00 0.000E+00 0.000E+00
BIGSUB  71        0    1.73530E-02   288.000     0.000   152.500   107.133    88.743     1.813    17.481     1.606   170.357     1.602     3.180     0.389     0.003     0.001     0.313   151.184     0.189     0.001 .00000E+00 0.000E+00 0.000E+00 0.000E+00 0.000E+00 0.000E+00
BIGSUB  72        0    1.20925E-01   274.400     0.000   157.169   113.776    74.177     0.555    31.763     0.370   151.321     1.302     2.432     0.297     0.002     0.005     0.240   119.161     0.146     0.000 .00000E+00 0.000E+00 0.000E+00 0.000E+00 0.000E+00 0.000E+00
BIGSUB  73        0    1.19206E-01   316.100     0.000   147.886   104.959    88.937     0.556    27.724     0.475   197.818     2.970     4.406     0.539     0.007     0.003     0.437   169.567     0.234     0.000 .00000E+00 0.000E+00 0.000E+00 0.000E+00 0.000E+00 0.000E+00
BIGSUB  74        0    1.17343E-01   288.000     0.000   152.508   107.127    88.736     1.614    17.474     1.430   170.371     1.643     3.212     0.393     0.003     0.001     0.317   151.387     0.189     0.001 .00000E+00 0.000E+00 0.000E+00 0.000E+00 0.000E+00 0.000E+00
BIGSUB  75        0    1.19188E-01   316.100     0.000   147.905   104.665    88.491     0.958    28.122     0.819   197.996     2.826     4.206     0.515     0.007     0.004     0.417   168.991     0.238     0.000 .00000E+00 0.000E+00 0.000E+00 0.000E+00 0.000E+00 0.000E+00
BIGSUB  76        0    1.15291E-01   301.600     0.000   152.382   106.646    87.035     0.715    35.471     0.614   184.499     2.724     5.130     0.627     0.008     0.002     0.506   148.377     0.201     0.000 .00000E+00 0.000E+00 0.000E+00 0.000E+00 0.000E+00 0.000E+00
BIGSUB  77        0    1.32760E-02   274.400     0.000   157.212   142.564     9.441     0.779   122.755     0.000   122.785     0.000     0.000     0.000     0.002     0.023     0.000     0.000     0.000     0.000 .00000E+00 0.000E+00 0.000E+00 0.000E+00 0.000E+00 0.000E+00
BIGSUB  78        0    1.11610E-02   274.400     0.000   157.214   142.570     9.441     0.779   122.763     0.000   122.792     0.000     0.000     0.000     0.002     0.023     0.000     0.000     0.000     0.000 .00000E+00 0.000E+00 0.000E+00 0.000E+00 0.000E+00 0.000E+00
BIGSUB  79        0    1.22680E-02   301.600     0.000   152.422   107.789    89.401     0.628    22.883     0.548   182.490     2.611     4.311     0.527     0.004     0.001     0.427   159.012     0.196     0.000 .00000E+00 0.000E+00 0.000E+00 0.000E+00 0.000E+00 0.000E+00
BIGSUB  80        0    1.18747E-01   301.600     0.000   152.408   106.986    88.053     0.979    31.565     0.854   183.984     2.635     4.888     0.597     0.006     0.002     0.482   151.516     0.203     0.000 .00000E+00 0.000E+00 0.000E+00 0.000E+00 0.000E+00 0.000E+00
BIGSUB  81        0    1.18630E-01   301.600     0.000   152.445   107.871    89.599     1.524    21.690     1.330   182.352     2.959     4.569     0.559     0.003     0.001     0.453   159.252     0.196     0.001 .00000E+00 0.000E+00 0.000E+00 0.000E+00 0.000E+00 0.000E+00
BIGSUB  82        0    1.39420E-02   301.600     0.000   152.460   107.726    88.945     1.446    22.648     1.261   182.537     3.136     4.745     0.580     0.004     0.001     0.470   158.550     0.194     0.001 .00000E+00 0.000E+00 0.000E+00 0.000E+00 0.000E+00 0.000E+00
BIGSUB  83        0    1.86400E-02   301.600     0.000   152.463   107.921    89.755     0.651    20.873     0.568   182.292     2.746     4.370     0.534     0.003     0.001     0.433   160.800     0.197     0.000 .00000E+00 0.000E+00 0.000E+00 0.000E+00 0.000E+00 0.000E+00
BIGSUB  84        0    1.14733E-01   301.600     0.000   152.464   107.937    89.764     1.056    20.886     0.922   182.260     2.861     4.461     0.545     0.003     0.001     0.442   160.387     0.197     0.000 .00000E+00 0.000E+00 0.000E+00 0.000E+00 0.000E+00 0.000E+00
BIGSUB  85        0    1.72000E-04   301.600     0.000   152.494   111.068    93.422    24.321    24.103    20.172   175.107     0.381     2.354     0.288     0.003     0.003     0.228   129.879     0.229     0.007 .00000E+00 0.000E+00 0.000E+00 0.000E+00 0.000E+00 0.000E+00
BIGSUB  86        0    1.48870E-02   301.600     0.000   152.480   107.999    89.798     2.612    20.927     2.279   182.124     2.115     3.802     0.465     0.003     0.001     0.376   158.798     0.196     0.001 .00000E+00 0.000E+00 0.000E+00 0.000E+00 0.000E+00 0.000E+00
BIGSUB  87        0    1.16938E-01   301.600     0.000   152.470   107.988    89.795     2.429    20.921     2.119   182.140     2.812     4.403     0.538     0.003     0.001     0.436   158.986     0.195     0.001 .00000E+00 0.000E+00 0.000E+00 0.000E+00 0.000E+00 0.000E+00
BIGSUB  88        0    1.41400E-03   301.600     0.000   152.500   109.389    93.421     0.341    22.322     0.000   177.440     0.780     3.038     0.371     0.003     0.002     0.296   155.007     0.209     0.000 .00000E+00 0.000E+00 0.000E+00 0.000E+00 0.000E+00 0.000E+00
BIGSUB  89        0    1.18900E-01   301.600     0.000   152.477   107.952    89.769     1.348    20.893     1.176   182.234     2.457     4.109     0.502     0.003     0.001     0.407   160.088     0.197     0.000 .00000E+00 0.000E+00 0.000E+00 0.000E+00 0.000E+00 0.000E+00
BIGSUB  90        0    1.13212E-01   301.600     0.000   152.462   107.940    89.767     1.183    20.890     1.032   182.251     2.476     4.129     0.505     0.003     0.001     0.409   160.259     0.197     0.000 .00000E+00 0.000E+00 0.000E+00 0.000E+00 0.000E+00 0.000E+00
BIGSUB  91        0    1.89460E-02   301.600     0.000   152.472   107.987    89.794     2.374    20.927     2.071   182.153     2.141     3.827     0.468     0.003     0.001     0.378   159.041     0.196     0.001 .00000E+00 0.000E+00 0.000E+00 0.000E+00 0.000E+00 0.000E+00
BIGSUB  92        0    1.17118E-01   301.600     0.000   152.488   107.983    89.916     6.216    21.241     5.347   181.911     2.275     3.876     0.474     0.004     0.002     0.384   155.085     0.199     0.002 .00000E+00 0.000E+00 0.000E+00 0.000E+00 0.000E+00 0.000E+00
BIGSUB  93        0    1.19701E-01   288.000     0.000   152.511   107.155    88.755     2.236    17.492     1.981   170.319     2.074     3.532     0.432     0.003     0.001     0.349   150.746     0.187     0.001 .00000E+00 0.000E+00 0.000E+00 0.000E+00 0.000E+00 0.000E+00
BIGSUB  94        0    1.76050E-02   288.000     0.000   152.529   107.148    88.742     1.924    17.488     1.704   170.347     1.395     3.034     0.371     0.003     0.001     0.298   151.064     0.189     0.001 .00000E+00 0.000E+00 0.000E+00 0.000E+00 0.000E+00 0.000E+00
BIGSUB  95        0    1.45900E-03   288.000     0.000   152.538   107.193    88.772     2.911    17.508     2.579   170.258     1.127     2.843     0.348     0.003     0.001     0.279   150.046     0.189     0.001 .00000E+00 0.000E+00 0.000E+00 0.000E+00 0.000E+00 0.000E+00
BIGSUB  96        0    1.26955E-01   288.000     0.000   152.543   107.148    88.725     2.268    17.491     2.009   170.323     2.563     3.947     0.483     0.003     0.001     0.391   150.723     0.189     0.001 .00000E+00 0.000E+00 0.000E+00 0.000E+00 0.000E+00 0.000E+00
BIGSUB  97        0    1.26874E-01   288.000     0.000   152.552   110.008    82.107     4.052    30.141     3.432   167.319     2.146     3.483     0.426     0.003     0.003     0.345   133.584     0.170     0.001 .00000E+00 0.000E+00 0.000E+00 0.000E+00 0.000E+00 0.000E+00
BIGSUB  98        0    1.26100E-03   288.000     0.000   152.586   139.480     9.764     0.836   139.400     0.000   139.432     0.000     0.000     0.000     0.002     0.026     0.000     0.001     0.000     0.000 .00000E+00 0.000E+00 0.000E+00 0.000E+00 0.000E+00 0.000E+00
BIGSUB  99        0    1.24390E-02   288.000     0.000   152.581   132.590    26.718     0.662   113.224     0.000   146.008     0.378     0.712     0.087     0.002     0.021     0.070    32.755     0.041     0.000 .00000E+00 0.000E+00 0.000E+00 0.000E+00 0.000E+00 0.000E+00
BIGSUB 100        0    1.77310E-02   288.000     0.000   152.569   124.762    45.590     0.456    83.997     0.000   153.506     0.948     1.622     0.198     0.002     0.015     0.160    69.484     0.086     0.000 .00000E+00 0.000E+00 0.000E+00 0.000E+00 0.000E+00 0.000E+00
BIGSUB 101        0    1.38520E-02   288.000     0.000   152.573   114.011    72.168     2.943    42.951     2.451   163.529     1.545     2.703     0.331     0.003     0.006     0.267   118.006     0.146     0.001 .00000E+00 0.000E+00 0.000E+00 0.000E+00 0.000E+00 0.000E+00
BIGSUB 102        0    1.79290E-02   288.000     0.000   152.584   126.622    40.899     1.007    91.595     0.445   151.809     0.716     1.358     0.166     0.002     0.016     0.134    59.726     0.075     0.000 .00000E+00 0.000E+00 0.000E+00 0.000E+00 0.000E+00 0.000E+00
BIGSUB 103        0    1.18828E-01   274.400     0.000   157.205   129.161     7.887     0.543   137.170     0.000   138.426     0.009     0.022     0.003     0.006     0.026     0.002     1.235     0.002     0.000 .00000E+00 0.000E+00 0.000E+00 0.000E+00 0.000E+00 0.000E+00
BIGSUB 104        0    1.40950E-02   274.400     0.000   157.216   130.252     7.355     0.564   136.664     0.000   136.686     0.000     0.000     0.000     0.006     0.026     0.000     0.000     0.000     0.000 .00000E+00 0.000E+00 0.000E+00 0.000E+00 0.000E+00 0.000E+00
BIGSUB 105        0    1.49500E-02   245.900     0.000   157.217   141.131     9.358     0.690    95.668     0.000    95.696     0.000     0.000     0.000     0.002     0.018     0.000     0.000     0.000     0.000 .00000E+00 0.000E+00 0.000E+00 0.000E+00 0.000E+00 0.000E+00
BIGSUB 106        0    1.23976E-01   245.900     0.000   157.191   122.184    48.116     0.409    48.366     0.040   114.821     0.484     0.943     0.115     0.001     0.009     0.093    66.397     0.075     0.000 .00000E+00 0.000E+00 0.000E+00 0.000E+00 0.000E+00 0.000E+00
BIGSUB 107        0    1.10170E-01   245.900     0.000   157.185   116.111    59.512     0.237    34.490     0.000   121.117     0.582     1.202     0.147     0.002     0.006     0.118    86.615     0.099     0.000 .00000E+00 0.000E+00 0.000E+00 0.000E+00 0.000E+00 0.000E+00
BIGSUB   1        0    2.44973E-01   193.700     0.000   154.245   111.259    68.201     0.294    21.415     0.524   107.598     0.720     1.547     0.189     0.000     0.001     0.152    85.595     0.026     0.000 .00000E+00 0.000E+00 0.000E+00 0.000E+00 0.000E+00 0.000E+00
BIGSUB   2        0    2.38097E-01   202.700     0.000   154.236   111.279    67.777     0.033    23.853     0.057   116.479     1.213     1.898     0.232     0.000     0.001     0.188    92.542     0.027     0.000 .00000E+00 0.000E+00 0.000E+00 0.000E+00 0.000E+00 0.000E+00
BIGSUB   3        0    2.17181E-01   193.700     0.000   154.249   110.701    66.106     0.067    20.617     0.119   108.692     0.685     1.505     0.184     0.000     0.001     0.148    87.928     0.027     0.000 .00000E+00 0.000E+00 0.000E+00 0.000E+00 0.000E+00 0.000E+00
BIGSUB   4        0    2.11880E-01   193.700     0.000   154.249   110.649    65.887     0.048    20.522     0.086   108.773     0.780     1.556     0.190     0.000     0.001     0.153    88.143     0.028     0.000 .00000E+00 0.000E+00 0.000E+00 0.000E+00 0.000E+00 0.000E+00
BIGSUB   5        0    2.12438E-01   202.700     0.000   154.200   111.273    67.779     0.000    23.854     0.000   116.462     1.355     2.003     0.245     0.000     0.000     0.198    92.585     0.027     0.000 .00000E+00 0.000E+00 0.000E+00 0.000E+00 0.000E+00 0.000E+00
BIGSUB   6        0    2.20997E-01   174.900     0.000   158.956   111.656    57.818     0.000    13.358     0.000    92.744     0.468     1.037     0.127     0.000     0.000     0.102    79.384     0.025     0.000 .00000E+00 0.000E+00 0.000E+00 0.000E+00 0.000E+00 0.000E+00
BIGSUB   7        0    2.93690E-02   193.700     0.000   154.258   110.647    65.873     0.000    20.517     0.000   108.743     0.942     1.655     0.202     0.000     0.000     0.163    88.209     0.027     0.000 .00000E+00 0.000E+00 0.000E+00 0.000E+00 0.000E+00 0.000E+00
BIGSUB   8        0    2.91440E-02   202.700     0.000   154.203   111.274    67.778     0.000    23.853     0.000   116.461     1.347     1.997     0.244     0.000     0.001     0.198    92.585     0.027     0.000 .00000E+00 0.000E+00 0.000E+00 0.000E+00 0.000E+00 0.000E+00
BIGSUB   9        0    2.17973E-01   202.700     0.000   154.201   111.275    67.786     0.035    23.856     0.061   116.482     1.390     2.029     0.248     0.000     0.000     0.201    92.538     0.027     0.000 .00000E+00 0.000E+00 0.000E+00 0.000E+00 0.000E+00 0.000E+00
BIGSUB  10        0    2.20547E-01   202.700     0.000   154.249   111.303    67.815     0.241    23.880     0.441   116.618     1.025     1.768     0.216     0.007     0.001     0.175    92.253     0.029     0.000 .00000E+00 0.000E+00 0.000E+00 0.000E+00 0.000E+00 0.000E+00
BIGSUB  11        0    2.18981E-01   193.700     0.000   154.289   110.627    65.973     0.332    21.060     0.612   108.980     1.194     1.814     0.222     0.040     0.001     0.180    87.265     0.098     0.000 .00000E+00 0.000E+00 0.000E+00 0.000E+00 0.000E+00 0.000E+00
BIGSUB  12        0    2.11619E-01   193.700     0.000   154.285   108.878    64.332     0.057    23.627     0.114   109.754     2.568     2.305     0.282     0.002     0.001     0.229    85.993     0.028     0.000 .00000E+00 0.000E+00 0.000E+00 0.000E+00 0.000E+00 0.000E+00
BIGSUB  13        0    2.17631E-01   202.700     0.000   154.191   111.272    67.781     0.000    23.855     0.000   116.461     1.690     2.242     0.274     0.000     0.000     0.222    92.584     0.027     0.000 .00000E+00 0.000E+00 0.000E+00 0.000E+00 0.000E+00 0.000E+00
BIGSUB  14        0    2.10269E-01   202.700     0.000   154.213   111.278    67.789     0.061    23.857     0.105   116.494     1.484     2.097     0.256     0.000     0.000     0.208    92.505     0.027     0.000 .00000E+00 0.000E+00 0.000E+00 0.000E+00 0.000E+00 0.000E+00
BIGSUB  15        0    2.94860E-02   202.700     0.000   154.185   111.271    67.782     0.000    23.855     0.000   116.463     1.385     2.026     0.248     0.000     0.000     0.201    92.584     0.027     0.000 .00000E+00 0.000E+00 0.000E+00 0.000E+00 0.000E+00 0.000E+00
BIGSUB  16        0    2.11835E-01   193.700     0.000   154.308   110.812    59.024     0.062    27.804     0.000   106.840     1.147     1.691     0.207     0.000     0.002     0.167    79.019     0.024     0.000 .00000E+00 0.000E+00 0.000E+00 0.000E+00 0.000E+00 0.000E+00
BIGSUB  17        0    2.11232E-01   193.700     0.000   154.322    87.156    45.187     0.061    61.310     0.212   121.744    27.498     9.507     1.163     0.021     0.002     0.959    60.209     0.032     0.000 .00000E+00 0.000E+00 0.000E+00 0.000E+00 0.000E+00 0.000E+00
BIGSUB  18        0    2.12069E-01   174.900     0.000   159.002   111.660    57.797     0.000    13.350     0.000    92.739     0.616     1.126     0.138     0.000     0.000     0.111    79.388     0.025     0.000 .00000E+00 0.000E+00 0.000E+00 0.000E+00 0.000E+00 0.000E+00
BIGSUB  19        0    2.20511E-01   202.700     0.000   154.196   111.276    67.793     0.061    23.859     0.106   116.496     1.680     2.234     0.273     0.000     0.000     0.222    92.504     0.027     0.000 .00000E+00 0.000E+00 0.000E+00 0.000E+00 0.000E+00 0.000E+00
BIGSUB  20        0    2.93600E-02   202.700     0.000   154.276   111.286    67.775     0.068    23.851     0.117   116.495     1.111     1.828     0.223     0.000     0.001     0.181    92.497     0.028     0.000 .00000E+00 0.000E+00 0.000E+00 0.000E+00 0.000E+00 0.000E+00
BIGSUB  21        0    2.10089E-01   174.900     0.000   159.027   111.583    51.922     0.056    19.379     0.000    90.700     0.607     1.046     0.128     0.000     0.002     0.103    71.316     0.022     0.000 .00000E+00 0.000E+00 0.000E+00 0.000E+00 0.000E+00 0.000E+00
BIGSUB  22        0    2.28305E-01   202.700     0.000   154.187   111.276    67.801     0.089    23.861     0.153   116.511     1.899     2.377     0.291     0.000     0.000     0.236    92.468     0.027     0.000 .00000E+00 0.000E+00 0.000E+00 0.000E+00 0.000E+00 0.000E+00
BIGSUB  23        0    2.94590E-02   202.700     0.000   154.202   111.273    67.778     0.000    23.854     0.000   116.459     1.667     2.226     0.272     0.000     0.000     0.221    92.585     0.027     0.000 .00000E+00 0.000E+00 0.000E+00 0.000E+00 0.000E+00 0.000E+00
BIGSUB  24        0    2.15804E-01   202.700     0.000   154.164   111.270    67.796     0.039    23.860     0.068   116.485     1.773     2.296     0.281     0.000     0.000     0.228    92.532     0.027     0.000 .00000E+00 0.000E+00 0.000E+00 0.000E+00 0.000E+00 0.000E+00
BIGSUB  25        0    2.20430E-01   202.700     0.000   154.197   111.273    67.780     0.000    23.854     0.000   116.462     1.520     2.124     0.260     0.000     0.000     0.210    92.585     0.027     0.000 .00000E+00 0.000E+00 0.000E+00 0.000E+00 0.000E+00 0.000E+00
BIGSUB  26        0    2.10980E-01   202.700     0.000   154.218   111.278    67.787     0.057    23.856     0.099   116.491     1.541     2.138     0.261     0.000     0.000     0.212    92.510     0.027     0.000 .00000E+00 0.000E+00 0.000E+00 0.000E+00 0.000E+00 0.000E+00
BIGSUB  27        0    2.18243E-01   202.700     0.000   154.179   110.130    67.807     0.034    25.798     0.060   117.164     1.508     2.158     0.264     0.000     0.001     0.214    91.284     0.028     0.000 .00000E+00 0.000E+00 0.000E+00 0.000E+00 0.000E+00 0.000E+00
BIGSUB  28        0    2.98370E-02   202.700     0.000   154.181   111.277    67.810     0.129    23.866     0.223   116.534     1.672     2.227     0.272     0.000     0.000     0.221    92.415     0.027     0.000 .00000E+00 0.000E+00 0.000E+00 0.000E+00 0.000E+00 0.000E+00
BIGSUB  29        0    2.12312E-01   202.700     0.000   154.193   111.272    67.781     0.000    23.855     0.000   116.460     1.721     2.262     0.277     0.000     0.000     0.224    92.585     0.027     0.000 .00000E+00 0.000E+00 0.000E+00 0.000E+00 0.000E+00 0.000E+00
BIGSUB  30        0    2.24588E-01   193.700     0.000   154.276   110.650    65.869     0.000    20.515     0.000   108.741     1.096     1.755     0.215     0.000     0.000     0.174    88.209     0.027     0.000 .00000E+00 0.000E+00 0.000E+00 0.000E+00 0.000E+00 0.000E+00
BIGSUB  31        0    2.17181E-01   193.700     0.000   154.346   113.930    37.593     0.323    48.763     0.000    99.014     0.790     1.119     0.137     0.000     0.007     0.111    50.227     0.015     0.000 .00000E+00 0.000E+00 0.000E+00 0.000E+00 0.000E+00 0.000E+00
BIGSUB  32        0    2.25614E-01   202.700     0.000   154.214   111.275    67.776     0.000    23.852     0.000   116.458     1.879     2.366     0.289     0.000     0.000     0.235    92.585     0.027     0.000 .00000E+00 0.000E+00 0.000E+00 0.000E+00 0.000E+00 0.000E+00
BIGSUB  33        0    2.10071E-01   184.700     0.000   159.029   114.445    49.806     0.136    27.230     0.000    95.728     0.570     1.029     0.126     0.000     0.003     0.102    68.487     0.022     0.000 .00000E+00 0.000E+00 0.000E+00 0.000E+00 0.000E+00 0.000E+00
BIGSUB  34        0    2.11439E-01   184.700     0.000   159.059   114.482    32.437     0.308    45.662     0.000    90.195     0.415     0.699     0.085     0.000     0.007     0.069    44.516     0.014     0.000 .00000E+00 0.000E+00 0.000E+00 0.000E+00 0.000E+00 0.000E+00
BIGSUB  35        0    2.21816E-01   193.700     0.000   154.247   110.647    65.882     0.027    20.520     0.047   108.757     1.528     2.065     0.253     0.000     0.000     0.205    88.172     0.027     0.000 .00000E+00 0.000E+00 0.000E+00 0.000E+00 0.000E+00 0.000E+00
BIGSUB  36        0    2.10215E-01   202.700     0.000   154.171   111.244    67.786     0.000    23.900     0.000   116.477     1.680     2.235     0.273     0.000     0.000     0.222    92.556     0.027     0.000 .00000E+00 0.000E+00 0.000E+00 0.000E+00 0.000E+00 0.000E+00
BIGSUB  37        0    2.11286E-01   165.500     0.000   159.070   111.855    29.301     0.295    33.511     0.000    74.468     0.271     0.524     0.064     0.000     0.005     0.052    40.943     0.013     0.000 .00000E+00 0.000E+00 0.000E+00 0.000E+00 0.000E+00 0.000E+00
BIGSUB  38        0    2.11997E-01   212.500     0.000   149.573   108.908    73.709     8.449    29.241    13.855   130.820     1.343     2.216     0.271     0.000     0.001     0.218    87.077     0.027     0.004 .00000E+00 0.000E+00 0.000E+00 0.000E+00 0.000E+00 0.000E+00
BIGSUB  39        0    2.20763E-01   202.700     0.000   154.168   101.153    63.768     0.031    41.655     0.053   122.431     5.848     3.705     0.453     0.005     0.001     0.369    80.714     0.032     0.000 .00000E+00 0.000E+00 0.000E+00 0.000E+00 0.000E+00 0.000E+00
BIGSUB  40        0    2.16200E-01   202.700     0.000   154.156   107.107    67.851     0.000    30.927     0.000   118.949     1.461     2.263     0.277     0.000     0.001     0.224    88.010     0.030     0.000 .00000E+00 0.000E+00 0.000E+00 0.000E+00 0.000E+00 0.000E+00
BIGSUB  41        0    2.10071E-01   193.700     0.000   154.242   110.645    65.876     0.000    20.518     0.000   108.744     1.033     1.713     0.209     0.000     0.000     0.169    88.209     0.027     0.000 .00000E+00 0.000E+00 0.000E+00 0.000E+00 0.000E+00 0.000E+00
BIGSUB  42        0    2.11151E-01   212.500     0.000   149.538    97.416    65.078     0.000    40.458     0.000   131.515     0.082     0.222     0.029     0.003     0.009     0.024    91.054     0.043     0.000 .00000E+00 0.000E+00 0.000E+00 0.000E+00 0.000E+00 0.000E+00
BIGSUB  43        0    2.17856E-01   184.700     0.000   158.941   113.265    60.750     0.000    16.554     0.000   100.131     0.883     1.385     0.169     0.000     0.000     0.137    83.572     0.026     0.000 .00000E+00 0.000E+00 0.000E+00 0.000E+00 0.000E+00 0.000E+00
BIGSUB  44        0    2.17820E-01   165.500     0.000   159.012   110.457    52.108     0.107    11.924     0.181    84.773     0.429     0.900     0.110     0.000     0.001     0.089    72.657     0.022     0.000 .00000E+00 0.000E+00 0.000E+00 0.000E+00 0.000E+00 0.000E+00
BIGSUB  45        0    2.46755E-01   184.700     0.000   158.981   113.285    60.792     0.138    16.565     0.264   100.212     0.772     1.305     0.160     0.000     0.000     0.129    83.365     0.026     0.000 .00000E+00 0.000E+00 0.000E+00 0.000E+00 0.000E+00 0.000E+00
BIGSUB  46        0    2.20556E-01   202.700     0.000   154.087   103.984    67.934     0.057    36.259     0.096   120.853     1.368     2.361     0.288     0.001     0.001     0.233    84.487     0.031     0.000 .00000E+00 0.000E+00 0.000E+00 0.000E+00 0.000E+00 0.000E+00
BIGSUB  47        0    2.17325E-01   184.700     0.000   158.998   113.273    60.736     0.000    16.549     0.000   100.128     0.615     1.204     0.147     0.000     0.000     0.119    83.573     0.026     0.000 .00000E+00 0.000E+00 0.000E+00 0.000E+00 0.000E+00 0.000E+00
BIGSUB  48        0    2.24030E-01   184.700     0.000   158.990   113.279    60.761     0.062    16.556     0.119   100.166     0.668     1.236     0.151     0.000     0.000     0.122    83.479     0.026     0.000 .00000E+00 0.000E+00 0.000E+00 0.000E+00 0.000E+00 0.000E+00
BIGSUB  49        0    2.24192E-01   184.700     0.000   158.984   113.284    60.785     0.124    16.564     0.237   100.204     0.719     1.269     0.155     0.000     0.000     0.125    83.386     0.026     0.000 .00000E+00 0.000E+00 0.000E+00 0.000E+00 0.000E+00 0.000E+00
BIGSUB  50        0    2.27819E-01   212.500     0.000   149.512    99.337    66.427     0.139    38.619     0.244   130.697     0.512     0.744     0.093     0.002     0.008     0.075    91.815     0.040     0.000 .00000E+00 0.000E+00 0.000E+00 0.000E+00 0.000E+00 0.000E+00
BIGSUB  51        0    2.50193E-01   184.700     0.000   159.018   113.549    53.438     0.196    24.110     0.226    97.621     0.588     1.087     0.133     0.000     0.002     0.107    73.265     0.023     0.000 .00000E+00 0.000E+00 0.000E+00 0.000E+00 0.000E+00 0.000E+00
BIGSUB  52        0    2.42867E-01   212.500     0.000   149.540   104.379    69.722     0.047    33.237     0.077   128.276     1.921     2.228     0.273     0.001     0.004     0.222    94.938     0.035     0.000 .00000E+00 0.000E+00 0.000E+00 0.000E+00 0.000E+00 0.000E+00
BIGSUB  53        0    2.18027E-01   212.500     0.000   149.506    97.190    64.951     0.066    40.718     0.106   131.659     0.051     0.183     0.025     0.003     0.009     0.020    90.827     0.043     0.000 .00000E+00 0.000E+00 0.000E+00 0.000E+00 0.000E+00 0.000E+00
BIGSUB  54        0    2.31662E-01   212.500     0.000   149.496   100.698    67.298     0.147    37.080     0.239   130.058     0.822     1.098     0.136     0.002     0.007     0.110    92.717     0.039     0.000 .00000E+00 0.000E+00 0.000E+00 0.000E+00 0.000E+00 0.000E+00
BIGSUB  55        0    2.84600E-02   193.700     0.000   154.276   110.654    65.886     0.069    20.521     0.122   108.781     0.919     1.639     0.200     0.000     0.001     0.162    88.115     0.027     0.000 .00000E+00 0.000E+00 0.000E+00 0.000E+00 0.000E+00 0.000E+00
BIGSUB  56        0    2.30600E-03   184.700     0.000   159.089   112.086     0.179     0.566    82.578     0.000    82.605     0.000     0.000     0.000     0.000     0.015     0.000     0.000     0.000     0.000 .00000E+00 0.000E+00 0.000E+00 0.000E+00 0.000E+00 0.000E+00
BIGSUB  57        0    2.46251E-01   193.700     0.000   154.301   110.679    65.282     0.181    21.195     0.312   108.667     1.094     1.742     0.213     0.000     0.001     0.172    87.128     0.027     0.000 .00000E+00 0.000E+00 0.000E+00 0.000E+00 0.000E+00 0.000E+00
BIGSUB  58        0    2.45090E-02   202.700     0.000   154.225   111.283    67.802     0.136    23.861     0.237   116.535     1.522     2.123     0.260     0.000     0.000     0.210    92.406     0.027     0.000 .00000E+00 0.000E+00 0.000E+00 0.000E+00 0.000E+00 0.000E+00
BIGSUB  59        0    2.15246E-01   184.700     0.000   159.049   113.868    50.889     0.371    26.645     0.499    96.643     0.465     0.972     0.119     0.000     0.003     0.096    69.467     0.022     0.000 .00000E+00 0.000E+00 0.000E+00 0.000E+00 0.000E+00 0.000E+00
BIGSUB  60        0    2.49770E-02   184.700     0.000   159.087   112.083     0.179     0.566    82.014     0.000    82.042     0.000     0.000     0.000     0.000     0.015     0.000     0.000     0.000     0.000 .00000E+00 0.000E+00 0.000E+00 0.000E+00 0.000E+00 0.000E+00
BIGSUB  61        0    2.20970E-02   202.700     0.000   154.218   111.290    67.837     0.302    23.876     0.522   116.632     1.152     1.852     0.226     0.000     0.001     0.183    92.188     0.027     0.000 .00000E+00 0.000E+00 0.000E+00 0.000E+00 0.000E+00 0.000E+00
BIGSUB  62        0    2.68040E-02   193.700     0.000   154.278   110.650    65.868     0.000    20.515     0.000   108.741     0.927     1.645     0.201     0.000     0.000     0.162    88.209     0.027     0.000 .00000E+00 0.000E+00 0.000E+00 0.000E+00 0.000E+00 0.000E+00
BIGSUB  63        0    2.16875E-01   193.700     0.000   154.313   110.744    62.203     0.102    24.445     0.122   107.765     1.208     1.780     0.218     0.000     0.001     0.176    83.175     0.026     0.000 .00000E+00 0.000E+00 0.000E+00 0.000E+00 0.000E+00 0.000E+00
BIGSUB  64        0    2.36360E-02   202.700     0.000   154.268   111.290    67.799     0.174    23.859     0.301   116.556     0.943     1.717     0.210     0.000     0.001     0.169    92.358     0.028     0.000 .00000E+00 0.000E+00 0.000E+00 0.000E+00 0.000E+00 0.000E+00
BIGSUB  65        0    2.41670E-02   202.700     0.000   154.247   111.279    67.768     0.000    23.849     0.000   116.459     0.980     1.743     0.213     0.000     0.001     0.172    92.586     0.028     0.000 .00000E+00 0.000E+00 0.000E+00 0.000E+00 0.000E+00 0.000E+00
BIGSUB  66        0    2.84600E-03   202.700     0.000   154.229   111.382    68.237     2.246    24.029     3.883   117.739     0.881     1.645     0.201     0.000     0.001     0.162    89.631     0.027     0.001 .00000E+00 0.000E+00 0.000E+00 0.000E+00 0.000E+00 0.000E+00
BIGSUB  67        0    2.11700E-02   193.700     0.000   154.345    87.266    47.482     1.958    69.260     4.792   123.719    20.191     8.601     1.052     0.390     0.005     0.866    49.464     0.852     0.003 .00000E+00 0.000E+00 0.000E+00 0.000E+00 0.000E+00 0.000E+00
BIGSUB  68        0    2.44730E-02   193.700     0.000   154.300   110.661    65.896     0.128    20.524     0.228   108.813     0.881     1.615     0.197     0.000     0.001     0.159    88.034     0.027     0.000 .00000E+00 0.000E+00 0.000E+00 0.000E+00 0.000E+00 0.000E+00
BIGSUB  69        0    2.10503E-01   193.700     0.000   154.353    98.043    47.685     0.641    70.787     1.318   111.734     2.291     2.840     0.347     0.177     0.007     0.283    39.564     0.384     0.000 .00000E+00 0.000E+00 0.000E+00 0.000E+00 0.000E+00 0.000E+00
BIGSUB  70        0    2.23580E-02   212.500     0.000   149.554   100.388    67.053     0.000    37.370     0.000   130.121     0.571     0.870     0.108     0.002     0.007     0.087    92.740     0.039     0.000 .00000E+00 0.000E+00 0.000E+00 0.000E+00 0.000E+00 0.000E+00
BIGSUB  71        0    2.73530E-02   193.700     0.000   154.276   110.698    66.068     0.789    20.584     1.403   109.199     0.899     1.615     0.197     0.000     0.001     0.159    87.132     0.027     0.000 .00000E+00 0.000E+00 0.000E+00 0.000E+00 0.000E+00 0.000E+00
BIGSUB  72        0    2.20925E-01   184.700     0.000   159.047   113.878    50.738     0.279    26.774     0.319    96.566     0.561     1.032     0.126     0.000     0.003     0.102    69.448     0.022     0.000 .00000E+00 0.000E+00 0.000E+00 0.000E+00 0.000E+00 0.000E+00
BIGSUB  73        0    2.19206E-01   212.500     0.000   149.565   106.348    71.050     0.258    31.205     0.424   127.469     2.263     2.679     0.328     0.001     0.002     0.266    95.796     0.032     0.000 .00000E+00 0.000E+00 0.000E+00 0.000E+00 0.000E+00 0.000E+00
BIGSUB  74        0    2.17343E-01   193.700     0.000   154.284   110.694    66.045     0.703    20.576     1.249   109.149     0.922     1.631     0.199     0.000     0.001     0.161    87.250     0.027     0.000 .00000E+00 0.000E+00 0.000E+00 0.000E+00 0.000E+00 0.000E+00
BIGSUB  75        0    2.19188E-01   212.500     0.000   149.583   105.979    70.822     0.445    31.602     0.730   127.746     2.154     2.561     0.314     0.001     0.003     0.254    95.356     0.033     0.000 .00000E+00 0.000E+00 0.000E+00 0.000E+00 0.000E+00 0.000E+00
BIGSUB  76        0    2.15291E-01   202.700     0.000   154.162   105.284    67.409     0.302    34.570     0.548   120.194     1.613     2.425     0.296     0.001     0.001     0.240    85.042     0.030     0.000 .00000E+00 0.000E+00 0.000E+00 0.000E+00 0.000E+00 0.000E+00
BIGSUB  77        0    2.32760E-02   184.700     0.000   159.089   112.034     0.193     0.566    81.594     0.000    81.622     0.000     0.000     0.000     0.000     0.015     0.000     0.000     0.000     0.000 .00000E+00 0.000E+00 0.000E+00 0.000E+00 0.000E+00 0.000E+00
BIGSUB  78        0    2.11610E-02   184.700     0.000   159.091   112.085     0.179     0.566    81.543     0.000    81.571     0.000     0.000     0.000     0.000     0.015     0.000     0.000     0.000     0.000 .00000E+00 0.000E+00 0.000E+00 0.000E+00 0.000E+00 0.000E+00
BIGSUB  79        0    2.22680E-02   202.700     0.000   154.201   110.743    67.689     0.279    25.211     0.483   116.917     1.439     2.087     0.255     0.001     0.001     0.207    91.182     0.028     0.000 .00000E+00 0.000E+00 0.000E+00 0.000E+00 0.000E+00 0.000E+00
BIGSUB  80        0    2.18747E-01   202.700     0.000   154.188   106.570    67.940     0.434    31.904     0.752   119.527     1.445     2.276     0.278     0.000     0.001     0.225    86.826     0.030     0.000 .00000E+00 0.000E+00 0.000E+00 0.000E+00 0.000E+00 0.000E+00
BIGSUB  81        0    2.18630E-01   202.700     0.000   154.223   110.971    67.863     0.677    24.484     1.171   117.044     1.613     2.179     0.266     0.000     0.001     0.216    91.315     0.027     0.000 .00000E+00 0.000E+00 0.000E+00 0.000E+00 0.000E+00 0.000E+00
BIGSUB  82        0    2.39420E-02   202.700     0.000   154.237   110.675    67.317     0.643    25.063     1.111   117.187     1.879     2.273     0.278     0.001     0.001     0.226    90.943     0.027     0.000 .00000E+00 0.000E+00 0.000E+00 0.000E+00 0.000E+00 0.000E+00
BIGSUB  83        0    2.86400E-02   202.700     0.000   154.241   111.292    67.830     0.289    23.871     0.501   116.621     1.480     2.091     0.256     0.000     0.001     0.207    92.205     0.027     0.000 .00000E+00 0.000E+00 0.000E+00 0.000E+00 0.000E+00 0.000E+00
BIGSUB  84        0    2.14733E-01   202.700     0.000   154.242   111.301    67.867     0.469    23.883     0.812   116.722     1.542     2.132     0.261     0.000     0.001     0.211    91.969     0.027     0.000 .00000E+00 0.000E+00 0.000E+00 0.000E+00 0.000E+00 0.000E+00
BIGSUB  85        0    2.72000E-04   202.700     0.000   154.270   113.948    77.733     9.716    26.859    16.817   115.143     0.184     0.972     0.119     0.000     0.002     0.094    70.555     0.037     0.005 .00000E+00 0.000E+00 0.000E+00 0.000E+00 0.000E+00 0.000E+00
BIGSUB  86        0    2.48870E-02   202.700     0.000   154.257   111.335    68.007     1.160    23.937     2.007   117.117     1.140     1.831     0.224     0.000     0.001     0.181    91.060     0.027     0.001 .00000E+00 0.000E+00 0.000E+00 0.000E+00 0.000E+00 0.000E+00
BIGSUB  87        0    2.16938E-01   202.700     0.000   154.247   111.330    67.993     1.079    23.933     1.867   117.071     1.516     2.105     0.257     0.000     0.001     0.209    91.166     0.027     0.001 .00000E+00 0.000E+00 0.000E+00 0.000E+00 0.000E+00 0.000E+00
BIGSUB  88        0    2.41400E-03   202.700     0.000   154.277   112.538    72.726     0.419    25.768     0.000   113.580     0.417     1.469     0.180     0.000     0.001     0.143    87.719     0.039     0.000 .00000E+00 0.000E+00 0.000E+00 0.000E+00 0.000E+00 0.000E+00
BIGSUB  89        0    2.18900E-01   202.700     0.000   154.254   111.309    67.891     0.599    23.892     1.036   116.796     1.325     1.972     0.241     0.000     0.001     0.195    91.799     0.027     0.000 .00000E+00 0.000E+00 0.000E+00 0.000E+00 0.000E+00 0.000E+00
BIGSUB  90        0    2.13212E-01   202.700     0.000   154.240   111.303    67.879     0.526    23.888     0.909   116.755     1.335     1.981     0.242     0.000     0.001     0.196    91.894     0.027     0.000 .00000E+00 0.000E+00 0.000E+00 0.000E+00 0.000E+00 0.000E+00
BIGSUB  91        0    2.89460E-02   202.700     0.000   154.249   111.329    67.987     1.054    23.925     1.824   117.053     1.154     1.842     0.225     0.000     0.001     0.182    91.199     0.027     0.001 .00000E+00 0.000E+00 0.000E+00 0.000E+00 0.000E+00 0.000E+00
BIGSUB  92        0    2.17118E-01   202.700     0.000   154.264   111.529    68.360     2.601    24.179     4.741   118.082     1.227     1.862     0.228     0.062     0.001     0.184    88.935     0.085     0.002 .00000E+00 0.000E+00 0.000E+00 0.000E+00 0.000E+00 0.000E+00
BIGSUB  93        0    2.19701E-01   193.700     0.000   154.287   110.711    66.112     0.973    20.599     1.731   109.304     1.164     1.786     0.218     0.000     0.001     0.177    86.881     0.027     0.001 .00000E+00 0.000E+00 0.000E+00 0.000E+00 0.000E+00 0.000E+00
BIGSUB  94        0    2.76050E-02   193.700     0.000   154.305   110.705    66.075     0.837    20.581     1.489   109.220     0.783     1.544     0.189     0.000     0.001     0.152    87.066     0.027     0.000 .00000E+00 0.000E+00 0.000E+00 0.000E+00 0.000E+00 0.000E+00
BIGSUB  95        0    2.45900E-03   193.700     0.000   154.313   110.733    66.181     1.267    20.624     2.253   109.473     0.631     1.447     0.177     0.000     0.001     0.142    86.479     0.027     0.001 .00000E+00 0.000E+00 0.000E+00 0.000E+00 0.000E+00 0.000E+00
BIGSUB  96        0    2.26955E-01   193.700     0.000   154.317   110.727    66.073     0.986    20.592     1.755   109.305     1.439     1.986     0.243     0.006     0.001     0.197    86.864     0.043     0.001 .00000E+00 0.000E+00 0.000E+00 0.000E+00 0.000E+00 0.000E+00
BIGSUB  97        0    2.26874E-01   193.700     0.000   154.326   110.508    60.942     1.769    28.173     3.027   108.358     1.222     1.767     0.216     0.009     0.002     0.175    77.006     0.049     0.001 .00000E+00 0.000E+00 0.000E+00 0.000E+00 0.000E+00 0.000E+00
BIGSUB  98        0    2.26100E-03   193.700     0.000   154.359   112.186     0.227     0.596    90.672     0.000    90.702     0.000     0.000     0.000     0.000     0.017     0.000     0.001     0.000     0.000 .00000E+00 0.000E+00 0.000E+00 0.000E+00 0.000E+00 0.000E+00
BIGSUB  99        0    2.24390E-02   193.700     0.000   154.354   112.087    14.272     0.474    75.483     0.000    94.389     0.212     0.361     0.044     0.000     0.013     0.036    18.879     0.006     0.000 .00000E+00 0.000E+00 0.000E+00 0.000E+00 0.000E+00 0.000E+00
BIGSUB 100        0    2.77310E-02   193.700     0.000   154.343   111.491    30.023     0.325    58.850     0.000    98.921     0.532     0.820     0.100     0.000     0.009     0.081    40.049     0.012     0.000 .00000E+00 0.000E+00 0.000E+00 0.000E+00 0.000E+00 0.000E+00
BIGSUB 101        0    2.38520E-02   193.700     0.000   154.347   111.055    52.358     1.330    35.592     2.142   105.864     0.867     1.368     0.167     0.000     0.004     0.135    68.016     0.021     0.001 .00000E+00 0.000E+00 0.000E+00 0.000E+00 0.000E+00 0.000E+00
BIGSUB 102        0    2.79290E-02   193.700     0.000   154.357   111.561    26.106     0.578    63.156     0.388    97.989     0.395     0.671     0.082     0.000     0.010     0.066    34.404     0.011     0.000 .00000E+00 0.000E+00 0.000E+00 0.000E+00 0.000E+00 0.000E+00
BIGSUB 103        0    2.18828E-01   184.700     0.000   159.082   100.179     0.815     0.408    90.658     0.000    91.398     0.004     0.009     0.001     0.002     0.017     0.001     0.720     0.000     0.000 .00000E+00 0.000E+00 0.000E+00 0.000E+00 0.000E+00 0.000E+00
BIGSUB 104        0    2.40950E-02   184.700     0.000   159.093   100.889     0.287     0.422    91.181     0.000    91.201     0.000     0.000     0.000     0.002     0.017     0.000     0.000     0.000     0.000 .00000E+00 0.000E+00 0.000E+00 0.000E+00 0.000E+00 0.000E+00
BIGSUB 105        0    2.49500E-02   165.500     0.000   159.095   110.498     0.106     0.566    63.915     0.000    63.940     0.000     0.000     0.000     0.000     0.012     0.000     0.000     0.000     0.000 .00000E+00 0.000E+00 0.000E+00 0.000E+00 0.000E+00 0.000E+00
BIGSUB 106        0    2.23976E-01   165.500     0.000   159.069   112.387    28.468     0.332    33.970     0.033    73.753     0.250     0.501     0.061     0.000     0.005     0.049    39.733     0.012     0.000 .00000E+00 0.000E+00 0.000E+00 0.000E+00 0.000E+00 0.000E+00
BIGSUB 107        0    2.10170E-01   165.500     0.000   159.063   111.393    37.068     0.202    26.206     0.000    78.047     0.300     0.638     0.078     0.000     0.004     0.063    51.831     0.016     0.000 .00000E+00 0.000E+00 0.000E+00 0.000E+00 0.000E+00 0.000E+00
BIGSUB   1        0    3.44973E-01   253.900     0.000   149.610   114.887    63.924     0.318    27.677     0.441   130.810     0.012     0.031     0.004     0.000     0.001     0.003   102.631     0.005     0.000 .00000E+00 0.000E+00 0.000E+00 0.000E+00 0.000E+00 0.000E+00
BIGSUB   2        0    3.38097E-01   266.100     0.000   149.605   114.939    63.452     0.036    31.005     0.048   142.177     0.020     0.042     0.005     0.000     0.001     0.004   111.099     0.005     0.000 .00000E+00 0.000E+00 0.000E+00 0.000E+00 0.000E+00 0.000E+00
BIGSUB   3        0    3.17181E-01   253.900     0.000   149.613   114.556    60.298     0.072    25.624     0.100   131.939     0.011     0.029     0.004     0.000     0.001     0.003   106.189     0.005     0.000 .00000E+00 0.000E+00 0.000E+00 0.000E+00 0.000E+00 0.000E+00
BIGSUB   4        0    3.11880E-01   253.900     0.000   149.612   114.529    59.991     0.052    25.440     0.072   131.990     0.012     0.031     0.004     0.000     0.001     0.003   106.457     0.005     0.000 .00000E+00 0.000E+00 0.000E+00 0.000E+00 0.000E+00 0.000E+00
BIGSUB   5        0    3.12438E-01   266.100     0.000   149.581   114.940    63.443     0.000    31.002     0.000   142.171     0.022     0.046     0.006     0.000     0.001     0.004   111.148     0.005     0.000 .00000E+00 0.000E+00 0.000E+00 0.000E+00 0.000E+00 0.000E+00
BIGSUB   6        0    3.20997E-01   229.500     0.000   153.993   117.006    46.034     0.000    12.740     0.000   110.362     0.006     0.018     0.002     0.000     0.000     0.002    97.620     0.003     0.000 .00000E+00 0.000E+00 0.000E+00 0.000E+00 0.000E+00 0.000E+00
BIGSUB   7        0    3.93690E-02   253.900     0.000   149.619   114.525    59.963     0.000    25.421     0.000   131.975     0.015     0.034     0.004     0.000     0.001     0.003   106.538     0.005     0.000 .00000E+00 0.000E+00 0.000E+00 0.000E+00 0.000E+00 0.000E+00
BIGSUB   8        0    3.91440E-02   266.100     0.000   149.584   114.940    63.443     0.000    31.002     0.000   142.171     0.022     0.046     0.006     0.000     0.001     0.004   111.148     0.005     0.000 .00000E+00 0.000E+00 0.000E+00 0.000E+00 0.000E+00 0.000E+00
BIGSUB   9        0    3.17973E-01   266.100     0.000   149.582   114.942    63.459     0.038    31.002     0.052   142.171     0.023     0.047     0.006     0.000     0.001     0.004   111.092     0.005     0.000 .00000E+00 0.000E+00 0.000E+00 0.000E+00 0.000E+00 0.000E+00
BIGSUB  10        0    3.20547E-01   266.100     0.000   149.612   114.999    63.557     0.213    31.107     0.364   142.250     0.017     0.038     0.005     0.000     0.001     0.004   110.736     0.006     0.000 .00000E+00 0.000E+00 0.000E+00 0.000E+00 0.000E+00 0.000E+00
BIGSUB  11        0    3.18981E-01   253.900     0.000   149.638   114.640    60.082     0.324    26.072     0.502   132.071     0.052     0.083     0.010     0.000     0.001     0.008   105.454     0.010     0.000 .00000E+00 0.000E+00 0.000E+00 0.000E+00 0.000E+00 0.000E+00
BIGSUB  12        0    3.11619E-01   253.900     0.000   149.635   111.997    59.106     0.064    30.578     0.084   134.364     2.735     0.731     0.089     0.002     0.001     0.074   103.682     0.009     0.000 .00000E+00 0.000E+00 0.000E+00 0.000E+00 0.000E+00 0.000E+00
BIGSUB  13        0    3.17631E-01   266.100     0.000   149.576   114.940    63.445     0.000    31.003     0.000   142.170     0.028     0.054     0.007     0.000     0.001     0.005   111.147     0.005     0.000 .00000E+00 0.000E+00 0.000E+00 0.000E+00 0.000E+00 0.000E+00
BIGSUB  14        0    3.10269E-01   266.100     0.000   149.590   114.942    63.468     0.066    31.022     0.090   142.189     0.024     0.049     0.006     0.000     0.001     0.005   111.053     0.005     0.000 .00000E+00 0.000E+00 0.000E+00 0.000E+00 0.000E+00 0.000E+00
BIGSUB  15        0    3.94860E-02   266.100     0.000   149.572   114.941    63.446     0.000    31.003     0.000   142.171     0.023     0.046     0.006     0.000     0.001     0.004   111.147     0.005     0.000 .00000E+00 0.000E+00 0.000E+00 0.000E+00 0.000E+00 0.000E+00
BIGSUB  16        0    3.11835E-01   253.900     0.000   149.650   113.344    55.051     0.089    37.022     0.000   132.480     0.018     0.037     0.005     0.000     0.003     0.004    95.442     0.004     0.000 .00000E+00 0.000E+00 0.000E+00 0.000E+00 0.000E+00 0.000E+00
BIGSUB  17        0    3.11232E-01   253.900     0.000   149.659    81.126    48.084     0.094    93.005     0.091   163.398    47.239     8.153     0.997     0.023     0.002     0.836    70.288     0.057     0.000 .00000E+00 0.000E+00 0.000E+00 0.000E+00 0.000E+00 0.000E+00
BIGSUB  18        0    3.12069E-01   229.500     0.000   154.025   117.007    46.013     0.000    12.731     0.000   110.359     0.008     0.020     0.002     0.000     0.000     0.002    97.626     0.003     0.000 .00000E+00 0.000E+00 0.000E+00 0.000E+00 0.000E+00 0.000E+00
BIGSUB  19        0    3.20511E-01   266.100     0.000   149.579   114.944    63.471     0.067    31.013     0.091   142.179     0.028     0.054     0.007     0.000     0.001     0.005   111.051     0.005     0.000 .00000E+00 0.000E+00 0.000E+00 0.000E+00 0.000E+00 0.000E+00
BIGSUB  20        0    3.93600E-02   266.100     0.000   149.629   114.938    63.461     0.073    30.996     0.100   142.170     0.018     0.040     0.005     0.000     0.001     0.004   111.047     0.005     0.000 .00000E+00 0.000E+00 0.000E+00 0.000E+00 0.000E+00 0.000E+00
BIGSUB  21        0    3.10089E-01   229.500     0.000   154.042   115.699    42.578     0.072    22.855     0.000   110.561     0.008     0.019     0.002     0.000     0.002     0.002    87.701     0.003     0.000 .00000E+00 0.000E+00 0.000E+00 0.000E+00 0.000E+00 0.000E+00
BIGSUB  22        0    3.28305E-01   266.100     0.000   149.573   114.946    63.485     0.096    31.030     0.131   142.194     0.031     0.059     0.007     0.000     0.000     0.006   111.007     0.005     0.000 .00000E+00 0.000E+00 0.000E+00 0.000E+00 0.000E+00 0.000E+00
BIGSUB  23        0    3.94590E-02   266.100     0.000   149.583   114.940    63.443     0.000    31.002     0.000   142.169     0.027     0.053     0.006     0.000     0.001     0.005   111.148     0.005     0.000 .00000E+00 0.000E+00 0.000E+00 0.000E+00 0.000E+00 0.000E+00
BIGSUB  24        0    3.15804E-01   266.100     0.000   149.559   114.945    63.467     0.042    31.020     0.058   142.183     0.029     0.056     0.007     0.000     0.001     0.005   111.083     0.005     0.000 .00000E+00 0.000E+00 0.000E+00 0.000E+00 0.000E+00 0.000E+00
BIGSUB  25        0    3.20430E-01   266.100     0.000   149.580   114.940    63.444     0.000    31.002     0.000   142.171     0.025     0.050     0.006     0.000     0.001     0.005   111.148     0.005     0.000 .00000E+00 0.000E+00 0.000E+00 0.000E+00 0.000E+00 0.000E+00
BIGSUB  26        0    3.10980E-01   266.100     0.000   149.593   114.942    63.466     0.062    31.019     0.084   142.186     0.025     0.050     0.006     0.000     0.001     0.005   111.059     0.005     0.000 .00000E+00 0.000E+00 0.000E+00 0.000E+00 0.000E+00 0.000E+00
BIGSUB  27        0    3.18243E-01   266.100     0.000   149.569   114.930    62.916     0.037    33.361     0.051   143.088     0.027     0.055     0.007     0.000     0.001     0.005   109.656     0.005     0.000 .00000E+00 0.000E+00 0.000E+00 0.000E+00 0.000E+00 0.000E+00
BIGSUB  28        0    3.98370E-02   266.100     0.000   149.570   114.949    63.503     0.140    31.006     0.190   142.168     0.027     0.053     0.007     0.000     0.001     0.005   110.943     0.005     0.000 .00000E+00 0.000E+00 0.000E+00 0.000E+00 0.000E+00 0.000E+00
BIGSUB  29        0    3.12312E-01   266.100     0.000   149.577   114.940    63.445     0.000    31.003     0.000   142.169     0.028     0.054     0.007     0.000     0.001     0.005   111.148     0.005     0.000 .00000E+00 0.000E+00 0.000E+00 0.000E+00 0.000E+00 0.000E+00
BIGSUB  30        0    3.24588E-01   253.900     0.000   149.630   114.524    59.961     0.000    25.420     0.000   131.974     0.017     0.037     0.005     0.000     0.001     0.004   106.539     0.005     0.000 .00000E+00 0.000E+00 0.000E+00 0.000E+00 0.000E+00 0.000E+00
BIGSUB  31        0    3.17181E-01   253.900     0.000   149.674   110.269    40.447     0.396    71.532     0.000   132.223     0.012     0.025     0.003     0.000     0.011     0.002    60.667     0.003     0.000 .00000E+00 0.000E+00 0.000E+00 0.000E+00 0.000E+00 0.000E+00
BIGSUB  32        0    3.25614E-01   266.100     0.000   149.591   114.939    63.441     0.000    31.001     0.000   142.169     0.031     0.058     0.007     0.000     0.000     0.006   111.149     0.005     0.000 .00000E+00 0.000E+00 0.000E+00 0.000E+00 0.000E+00 0.000E+00
BIGSUB  33        0    3.10071E-01   241.700     0.000   154.043   115.438    44.359     0.154    35.467     0.000   119.721     0.009     0.021     0.003     0.000     0.004     0.002    84.243     0.003     0.000 .00000E+00 0.000E+00 0.000E+00 0.000E+00 0.000E+00 0.000E+00
BIGSUB  34        0    3.11439E-01   241.700     0.000   154.064   111.860    33.437     0.379    64.536     0.000   119.313     0.006     0.014     0.002     0.000     0.010     0.001    54.759     0.002     0.000 .00000E+00 0.000E+00 0.000E+00 0.000E+00 0.000E+00 0.000E+00
BIGSUB  35        0    3.21816E-01   253.900     0.000   149.611   114.528    59.979     0.029    25.423     0.040   131.972     0.024     0.047     0.006     0.000     0.000     0.005   106.493     0.005     0.000 .00000E+00 0.000E+00 0.000E+00 0.000E+00 0.000E+00 0.000E+00
BIGSUB  36        0    3.10215E-01   266.100     0.000   149.563   114.942    63.436     0.000    31.057     0.000   142.190     0.028     0.053     0.007     0.000     0.001     0.005   111.114     0.005     0.000 .00000E+00 0.000E+00 0.000E+00 0.000E+00 0.000E+00 0.000E+00
BIGSUB  37        0    3.11286E-01   217.000     0.000   154.072   110.433    27.759     0.313    49.377     0.000    99.645     0.003     0.008     0.001     0.000     0.009     0.001    50.253     0.001     0.000 .00000E+00 0.000E+00 0.000E+00 0.000E+00 0.000E+00 0.000E+00
BIGSUB  38        0    3.11997E-01   278.300     0.000   145.287   112.548    73.776     9.188    40.515    12.059   154.954     0.018     0.041     0.005     0.000     0.002     0.004   101.692     0.006     0.002 .00000E+00 0.000E+00 0.000E+00 0.000E+00 0.000E+00 0.000E+00
BIGSUB  39        0    3.20763E-01   266.100     0.000   149.562   108.594    58.054     0.033    56.004     0.045   152.881     8.021     1.664     0.203     0.005     0.001     0.170    96.823     0.017     0.000 .00000E+00 0.000E+00 0.000E+00 0.000E+00 0.000E+00 0.000E+00
BIGSUB  40        0    3.16200E-01   266.100     0.000   149.554   114.896    61.463     0.000    39.556     0.000   145.478     0.034     0.073     0.009     0.000     0.001     0.007   105.911     0.006     0.000 .00000E+00 0.000E+00 0.000E+00 0.000E+00 0.000E+00 0.000E+00
BIGSUB  41        0    3.10071E-01   253.900     0.000   149.608   114.526    59.966     0.000    25.423     0.000   131.975     0.016     0.036     0.004     0.000     0.001     0.003   106.537     0.005     0.000 .00000E+00 0.000E+00 0.000E+00 0.000E+00 0.000E+00 0.000E+00
BIGSUB  42        0    3.11151E-01   278.300     0.000   145.269   109.191    62.336     0.000    58.263     0.000   161.464     0.052     0.187     0.025     0.002     0.008     0.021   103.198     0.006     0.000 .00000E+00 0.000E+00 0.000E+00 0.000E+00 0.000E+00 0.000E+00
BIGSUB  43        0    3.17856E-01   241.700     0.000   153.982   117.453    50.910     0.000    17.351     0.000   120.148     0.014     0.030     0.004     0.000     0.000     0.003   102.793     0.003     0.000 .00000E+00 0.000E+00 0.000E+00 0.000E+00 0.000E+00 0.000E+00
BIGSUB  44        0    3.17820E-01   217.000     0.000   154.031   115.903    39.166     0.110    11.275     0.142   100.603     0.005     0.013     0.002     0.000     0.001     0.001    89.176     0.002     0.000 .00000E+00 0.000E+00 0.000E+00 0.000E+00 0.000E+00 0.000E+00
BIGSUB  45        0    3.46755E-01   241.700     0.000   154.010   117.470    51.007     0.146    17.389     0.216   120.162     0.012     0.027     0.003     0.000     0.000     0.003   102.540     0.003     0.000 .00000E+00 0.000E+00 0.000E+00 0.000E+00 0.000E+00 0.000E+00
BIGSUB  46        0    3.20556E-01   266.100     0.000   149.510   114.878    60.008     0.059    45.988     0.083   147.959     0.041     0.094     0.011     0.000     0.001     0.009   101.878     0.007     0.000 .00000E+00 0.000E+00 0.000E+00 0.000E+00 0.000E+00 0.000E+00
BIGSUB  47        0    3.17325E-01   241.700     0.000   154.022   117.455    50.894     0.000    17.344     0.000   120.147     0.010     0.024     0.003     0.000     0.000     0.002   102.798     0.003     0.000 .00000E+00 0.000E+00 0.000E+00 0.000E+00 0.000E+00 0.000E+00
BIGSUB  48        0    3.24030E-01   241.700     0.000   154.017   117.462    50.944     0.066    17.365     0.098   120.156     0.010     0.025     0.003     0.000     0.000     0.002   102.682     0.003     0.000 .00000E+00 0.000E+00 0.000E+00 0.000E+00 0.000E+00 0.000E+00
BIGSUB  49        0    3.24192E-01   241.700     0.000   154.012   117.468    50.994     0.131    17.361     0.194   120.139     0.011     0.026     0.003     0.000     0.000     0.002   102.567     0.003     0.000 .00000E+00 0.000E+00 0.000E+00 0.000E+00 0.000E+00 0.000E+00
BIGSUB  50        0    3.27819E-01   278.300     0.000   145.255   109.688    63.971     0.156    55.495     0.202   160.346     0.059     0.194     0.025     0.001     0.006     0.021   104.630     0.007     0.000 .00000E+00 0.000E+00 0.000E+00 0.000E+00 0.000E+00 0.000E+00
BIGSUB  51        0    3.50193E-01   241.700     0.000   154.036   116.008    46.441     0.222    30.006     0.185   120.329     0.009     0.022     0.003     0.000     0.003     0.002    90.120     0.003     0.000 .00000E+00 0.000E+00 0.000E+00 0.000E+00 0.000E+00 0.000E+00
BIGSUB  52        0    3.42867E-01   278.300     0.000   145.269   111.096    67.908     0.050    47.463     0.067   157.230     0.046     0.121     0.016     0.001     0.003     0.013   109.678     0.007     0.000 .00000E+00 0.000E+00 0.000E+00 0.000E+00 0.000E+00 0.000E+00
BIGSUB  53        0    3.18027E-01   278.300     0.000   145.252   109.147    62.180     0.064    58.617     0.094   161.593     0.055     0.202     0.027     0.002     0.008     0.022   102.875     0.006     0.000 .00000E+00 0.000E+00 0.000E+00 0.000E+00 0.000E+00 0.000E+00
BIGSUB  54        0    3.31662E-01   278.300     0.000   145.247   110.111    65.001     0.153    53.180     0.209   159.470     0.050     0.164     0.021     0.001     0.006     0.018   106.060     0.007     0.000 .00000E+00 0.000E+00 0.000E+00 0.000E+00 0.000E+00 0.000E+00
BIGSUB  55        0    3.84600E-02   253.900     0.000   149.630   114.529    59.997     0.074    25.423     0.103   131.973     0.014     0.033     0.004     0.000     0.001     0.003   106.426     0.005     0.000 .00000E+00 0.000E+00 0.000E+00 0.000E+00 0.000E+00 0.000E+00
BIGSUB  56        0    3.30600E-03   241.700     0.000   154.085   104.705    12.426     0.769   112.211     0.000   112.242     0.000     0.000     0.000     0.000     0.021     0.000     0.000     0.000     0.000 .00000E+00 0.000E+00 0.000E+00 0.000E+00 0.000E+00 0.000E+00
BIGSUB  57        0    3.46251E-01   253.900     0.000   149.646   114.427    59.601     0.197    26.504     0.262   132.033     0.017     0.037     0.005     0.000     0.001     0.004   105.235     0.005     0.000 .00000E+00 0.000E+00 0.000E+00 0.000E+00 0.000E+00 0.000E+00
BIGSUB  58        0    3.45090E-02   266.100     0.000   149.597   114.946    63.501     0.148    31.052     0.201   142.215     0.025     0.049     0.006     0.000     0.001     0.005   110.932     0.005     0.000 .00000E+00 0.000E+00 0.000E+00 0.000E+00 0.000E+00 0.000E+00
BIGSUB  59        0    3.15246E-01   241.700     0.000   154.057   115.549    45.001     0.410    34.325     0.408   120.214     0.007     0.019     0.002     0.000     0.004     0.002    85.448     0.003     0.000 .00000E+00 0.000E+00 0.000E+00 0.000E+00 0.000E+00 0.000E+00
BIGSUB  60        0    3.49770E-02   241.700     0.000   154.083   104.705    12.426     0.769   118.006     0.000   118.037     0.000     0.000     0.000     0.000     0.022     0.000     0.000     0.000     0.000 .00000E+00 0.000E+00 0.000E+00 0.000E+00 0.000E+00 0.000E+00
BIGSUB  61        0    3.20970E-02   266.100     0.000   149.593   114.956    63.573     0.328    31.005     0.445   142.168     0.019     0.041     0.005     0.000     0.001     0.004   110.672     0.005     0.000 .00000E+00 0.000E+00 0.000E+00 0.000E+00 0.000E+00 0.000E+00
BIGSUB  62        0    3.68040E-02   253.900     0.000   149.631   114.523    59.960     0.000    25.420     0.000   131.974     0.014     0.034     0.004     0.000     0.001     0.003   106.539     0.005     0.000 .00000E+00 0.000E+00 0.000E+00 0.000E+00 0.000E+00 0.000E+00
BIGSUB  63        0    3.16875E-01   253.900     0.000   149.653   113.894    57.355     0.122    31.609     0.103   132.195     0.019     0.039     0.005     0.000     0.002     0.004   100.462     0.004     0.000 .00000E+00 0.000E+00 0.000E+00 0.000E+00 0.000E+00 0.000E+00
BIGSUB  64        0    3.36360E-02   266.100     0.000   149.625   114.945    63.509     0.189    31.037     0.256   142.208     0.015     0.036     0.004     0.000     0.001     0.003   110.878     0.005     0.000 .00000E+00 0.000E+00 0.000E+00 0.000E+00 0.000E+00 0.000E+00
BIGSUB  65        0    3.41670E-02   266.100     0.000   149.611   114.936    63.436     0.000    30.998     0.000   142.171     0.016     0.037     0.005     0.000     0.001     0.004   111.151     0.005     0.000 .00000E+00 0.000E+00 0.000E+00 0.000E+00 0.000E+00 0.000E+00
BIGSUB  66        0    3.84600E-03   266.100     0.000   149.600   115.066    64.421     2.439    31.035     3.311   142.153     0.013     0.032     0.004     0.000     0.001     0.003   107.603     0.005     0.001 .00000E+00 0.000E+00 0.000E+00 0.000E+00 0.000E+00 0.000E+00
BIGSUB  67        0    3.11700E-02   253.900     0.000   149.673    82.271    50.489     2.004    99.659     3.046   161.074    35.001     8.853     1.083     0.025     0.005     0.901    58.155     0.112     0.002 .00000E+00 0.000E+00 0.000E+00 0.000E+00 0.000E+00 0.000E+00
BIGSUB  68        0    3.44730E-02   253.900     0.000   149.645   114.532    60.026     0.138    25.466     0.192   132.012     0.014     0.033     0.004     0.000     0.001     0.003   106.328     0.005     0.000 .00000E+00 0.000E+00 0.000E+00 0.000E+00 0.000E+00 0.000E+00
BIGSUB  69        0    3.10503E-01   253.900     0.000   149.678    97.175    49.034     0.844   101.177     0.756   149.415     3.410     3.469     0.424     0.013     0.010     0.348    47.413     0.043     0.000 .00000E+00 0.000E+00 0.000E+00 0.000E+00 0.000E+00 0.000E+00
BIGSUB  70        0    3.23580E-02   278.300     0.000   145.277   109.999    64.707     0.000    53.651     0.000   159.657     0.037     0.123     0.016     0.001     0.006     0.013   105.997     0.007     0.000 .00000E+00 0.000E+00 0.000E+00 0.000E+00 0.000E+00 0.000E+00
BIGSUB  71        0    3.73530E-02   253.900     0.000   149.630   114.581    60.380     0.851    25.508     1.181   132.008     0.014     0.033     0.004     0.000     0.001     0.003   105.238     0.005     0.000 .00000E+00 0.000E+00 0.000E+00 0.000E+00 0.000E+00 0.000E+00
BIGSUB  72        0    3.20925E-01   241.700     0.000   154.056   115.519    44.860     0.312    34.295     0.261   120.007     0.009     0.021     0.003     0.000     0.004     0.002    85.426     0.003     0.000 .00000E+00 0.000E+00 0.000E+00 0.000E+00 0.000E+00 0.000E+00
BIGSUB  73        0    3.19206E-01   278.300     0.000   145.283   111.633    69.532     0.280    44.443     0.369   156.080     0.040     0.091     0.011     0.000     0.002     0.009   111.226     0.007     0.000 .00000E+00 0.000E+00 0.000E+00 0.000E+00 0.000E+00 0.000E+00
[...]
BIGSUB  36        0  3.0.10215E-01  3340.782     0.000  1509.977   890.549    89.222    10.789   847.589     0.000  2435.582    77.688    55.915     6.835     0.047     0.023     5.511  1587.423     2.402     0.000 .00000E+00 0.000E+00 0.000E+00 0.000E+00 0.000E+00 0.000E+00
BIGSUB  37        0  3.0.11286E-01  2721.814     0.000  1562.519   940.625    46.696     7.721  1037.249     0.000  1771.258    24.088    29.238     3.570     0.025     0.147     2.853   733.626     1.405     0.000 .00000E+00 0.000E+00 0.000E+00 0.000E+00 0.000E+00 0.000E+00
BIGSUB  38        0  3.0.11997E-01  3496.007     0.000  1461.308   892.053    93.355   171.957   958.937   145.563  2580.910    41.178    48.913     5.983     0.046     0.054     4.775  1467.778     1.961     0.037 .00000E+00 0.000E+00 0.000E+00 0.000E+00 0.000E+00 0.000E+00
BIGSUB  39        0  3.0.20763E-01  3340.782     0.000  1509.937   875.007    78.548     6.140  1118.229     0.557  2457.766   135.120    52.459     6.414     0.127     0.038     5.136  1338.665     1.971     0.000 .00000E+00 0.000E+00 0.000E+00 0.000E+00 0.000E+00 0.000E+00
BIGSUB  40        0  3.0.16200E-01  3340.782     0.000  1509.763   892.779    85.157     8.090   940.806     0.000  2437.066    56.516    53.177     6.501     0.076     0.035     5.198  1495.840     2.126     0.000 .00000E+00 0.000E+00 0.000E+00 0.000E+00 0.000E+00 0.000E+00
BIGSUB  41        0  3.0.10071E-01  3187.023     0.000  1510.955   882.267    86.440    10.687   763.570     0.000  2291.047    50.388    54.208     6.621     0.047     0.024     5.302  1526.920     2.445     0.000 .00000E+00 0.000E+00 0.000E+00 0.000E+00 0.000E+00 0.000E+00
BIGSUB  42        0  3.0.11151E-01  3496.007     0.000  1460.768   882.969    83.057     6.307  1175.278     0.000  2599.784    20.510    43.771     5.551     0.116     0.117     4.810  1424.193     1.275     0.000 .00000E+00 0.000E+00 0.000E+00 0.000E+00 0.000E+00 0.000E+00
BIGSUB  43        0  3.0.17856E-01  3033.263     0.000  1560.849   886.767    82.456     7.406   667.518     0.000  2136.975    62.396    54.939     6.707     0.047     0.020     5.394  1469.084     2.665     0.000 .00000E+00 0.000E+00 0.000E+00 0.000E+00 0.000E+00 0.000E+00
BIGSUB  44        0  3.0.17820E-01  2721.814     0.000  1561.767   866.092    73.833     7.833   544.694     1.973  1848.566    38.139    51.632     6.304     0.037     0.029     5.027  1301.510     2.474     0.001 .00000E+00 0.000E+00 0.000E+00 0.000E+00 0.000E+00 0.000E+00
BIGSUB  45        0  3.0.46755E-01  3033.263     0.000  1561.367   887.043    82.496    11.104   667.823     2.827  2136.008    54.576    54.339     6.634     0.047     0.022     5.322  1464.801     2.632     0.001 .00000E+00 0.000E+00 0.000E+00 0.000E+00 0.000E+00 0.000E+00
BIGSUB  46        0  3.0.20556E-01  3340.782     0.000  1508.812   894.502    82.056     7.122  1011.491     0.988  2438.140    41.957    51.719     6.323     0.097     0.043     5.024  1425.300     1.914     0.000 .00000E+00 0.000E+00 0.000E+00 0.000E+00 0.000E+00 0.000E+00
BIGSUB  47        0  3.0.17325E-01  3033.263     0.000  1561.589   886.847    82.473     8.292   667.427     0.000  2136.046    43.454    53.757     6.563     0.048     0.023     5.242  1468.202     2.634     0.000 .00000E+00 0.000E+00 0.000E+00 0.000E+00 0.000E+00 0.000E+00
BIGSUB  48        0  3.0.24030E-01  3033.263     0.000  1561.493   886.935    82.483     9.578   667.604     1.277  2136.014    47.178    53.932     6.584     0.047     0.023     5.268  1466.651     2.633     0.000 .00000E+00 0.000E+00 0.000E+00 0.000E+00 0.000E+00 0.000E+00
BIGSUB  49        0  3.0.24192E-01  3033.263     0.000  1561.411   887.024    82.494    10.775   667.776     2.540  2136.050    50.816    54.105     6.605     0.047     0.022     5.292  1465.193     2.636     0.001 .00000E+00 0.000E+00 0.000E+00 0.000E+00 0.000E+00 0.000E+00
BIGSUB  50        0  3.0.27819E-01  3496.007     0.000  1460.356   883.480    84.795    10.289  1138.628     2.590  2598.405    31.889    46.805     5.893     0.104     0.100     5.033  1456.666     1.431     0.001 .00000E+00 0.000E+00 0.000E+00 0.000E+00 0.000E+00 0.000E+00
BIGSUB  51        0  3.0.50193E-01  3033.263     0.000  1561.854   908.945    73.977    11.408   823.207     2.421  2113.269    41.587    47.357     5.781     0.043     0.062     4.626  1287.069     2.305     0.001 .00000E+00 0.000E+00 0.000E+00 0.000E+00 0.000E+00 0.000E+00
BIGSUB  52        0  3.0.42867E-01  3496.007     0.000  1460.787   884.404    89.359    11.336  1034.206     0.793  2595.465    66.122    51.920     6.429     0.073     0.059     5.320  1559.870     1.858     0.000 .00000E+00 0.000E+00 0.000E+00 0.000E+00 0.000E+00 0.000E+00
BIGSUB  53        0  3.0.18027E-01  3496.007     0.000  1460.266   883.046    82.821     7.295  1180.191     1.040  2599.791    21.056    44.334     5.628     0.117     0.118     4.884  1418.198     1.254     0.000 .00000E+00 0.000E+00 0.000E+00 0.000E+00 0.000E+00 0.000E+00
BIGSUB  54        0  3.0.31662E-01  3496.007     0.000  1460.108   883.786    85.991    10.978  1109.170     2.441  2597.510    39.077    48.117     6.030     0.096     0.090     5.103  1485.337     1.546     0.001 .00000E+00 0.000E+00 0.000E+00 0.000E+00 0.000E+00 0.000E+00
BIGSUB  55        0  3.0.84600E-02  3187.023     0.000  1511.424   882.394    86.466    12.386   763.680     1.299  2290.597    44.840    53.774     6.568     0.047     0.026     5.248  1524.976     2.438     0.000 .00000E+00 0.000E+00 0.000E+00 0.000E+00 0.000E+00 0.000E+00
BIGSUB  56        0  3.0.30600E-03  3033.263     0.000  1562.760  1055.168    11.011    10.995  1962.714     0.000  1963.256     0.000     0.000     0.000     0.012     0.346     0.000     0.000     0.000     0.000 .00000E+00 0.000E+00 0.000E+00 0.000E+00 0.000E+00 0.000E+00
BIGSUB  57        0  3.0.46251E-01  3187.023     0.000  1511.772   884.157    85.775    14.611   776.826     3.311  2288.730    53.421    53.799     6.571     0.046     0.028     5.269  1507.841     2.404     0.001 .00000E+00 0.000E+00 0.000E+00 0.000E+00 0.000E+00 0.000E+00
BIGSUB  58        0  3.0.45090E-02  3340.782     0.000  1510.714   890.757    89.286    13.497   847.215     2.500  2435.288    70.445    55.516     6.786     0.047     0.024     5.464  1584.869     2.403     0.001 .00000E+00 0.000E+00 0.000E+00 0.000E+00 0.000E+00 0.000E+00
BIGSUB  59        0  3.0.15246E-01  3033.263     0.000  1562.251   917.734    71.069    14.845   877.716     5.339  2104.066    32.892    44.507     5.434     0.042     0.077     4.332  1220.269     2.188     0.002 .00000E+00 0.000E+00 0.000E+00 0.000E+00 0.000E+00 0.000E+00
BIGSUB  60        0  3.0.49770E-02  3033.263     0.000  1562.737  1055.141    11.010    10.993  1963.222     0.000  1963.773     0.000     0.000     0.000     0.012     0.346     0.000     0.008     0.000     0.000 .00000E+00 0.000E+00 0.000E+00 0.000E+00 0.000E+00 0.000E+00
BIGSUB  61        0  3.0.20970E-02  3340.782     0.000  1510.623   890.919    89.293    17.612   847.516     5.518  2434.239    53.309    54.240     6.629     0.048     0.027     5.314  1580.292     2.386     0.001 .00000E+00 0.000E+00 0.000E+00 0.000E+00 0.000E+00 0.000E+00
BIGSUB  62        0  3.0.68040E-02  3187.023     0.000  1511.455   882.313    86.459    10.881   763.539     0.000  2290.809    45.223    53.854     6.578     0.047     0.026     5.256  1526.704     2.444     0.000 .00000E+00 0.000E+00 0.000E+00 0.000E+00 0.000E+00 0.000E+00
BIGSUB  63        0  3.0.16875E-01  3187.023     0.000  1511.926   891.832    82.278    11.613   839.693     1.294  2281.880    58.962    51.939     6.344     0.044     0.042     5.100  1440.294     2.315     0.000 .00000E+00 0.000E+00 0.000E+00 0.000E+00 0.000E+00 0.000E+00
BIGSUB  64        0  3.0.36360E-02  3340.782     0.000  1511.312   890.852    89.313    16.119   847.234     3.175  2433.374    43.647    53.686     6.561     0.049     0.028     5.238  1582.123     2.376     0.001 .00000E+00 0.000E+00 0.000E+00 0.000E+00 0.000E+00 0.000E+00
BIGSUB  65        0  3.0.41670E-02  3340.782     0.000  1511.017   890.638    89.289    12.636   846.934     0.000  2433.720    45.341    53.927     6.590     0.048     0.028     5.265  1586.119     2.382     0.000 .00000E+00 0.000E+00 0.000E+00 0.000E+00 0.000E+00 0.000E+00
BIGSUB  66        0  3.0.84600E-03  3340.782     0.000  1510.776   892.993    89.430    56.369   851.068    41.033  2430.891    40.763    52.002     6.355     0.048     0.035     5.069  1535.944     2.318     0.011 .00000E+00 0.000E+00 0.000E+00 0.000E+00 0.000E+00 0.000E+00
BIGSUB  67        0  3.0.11700E-02  3187.023     0.000  1512.375   798.968    63.958    60.073  1591.666    50.550  2376.790   427.268    43.185     5.284     0.588     0.091     4.358   731.622     2.855     0.029 .00000E+00 0.000E+00 0.000E+00 0.000E+00 0.000E+00 0.000E+00
BIGSUB  68        0  3.0.44730E-02  3187.023     0.000  1511.747   882.499    86.485    13.486   763.787     2.422  2290.569    42.995    53.606     6.547     0.047     0.026     5.227  1523.663     2.441     0.001 .00000E+00 0.000E+00 0.000E+00 0.000E+00 0.000E+00 0.000E+00
BIGSUB  69        0  3.0.10503E-01  3187.023     0.000  1512.476   885.793    63.532    23.253  1626.393    14.838  2289.938    47.471    33.207     4.060     0.272     0.151     3.280   647.563     1.681     0.006 .00000E+00 0.000E+00 0.000E+00 0.000E+00 0.000E+00 0.000E+00
BIGSUB  70        0  3.0.23580E-02  3496.007     0.000  1461.010   883.539    85.764     8.091  1114.991     0.000  2597.981    28.118    44.421     5.567     0.099     0.096     4.714  1482.575     1.529     0.000 .00000E+00 0.000E+00 0.000E+00 0.000E+00 0.000E+00 0.000E+00
BIGSUB  71        0  3.0.73530E-02  3187.023     0.000  1511.424   883.275    86.550    27.036   765.153    14.899  2289.407    43.884    53.162     6.493     0.047     0.028     5.187  1507.984     2.412     0.004 .00000E+00 0.000E+00 0.000E+00 0.000E+00 0.000E+00 0.000E+00
BIGSUB  72        0  3.0.20925E-01  3033.262     0.000  1562.228   917.982    70.920    12.493   879.817     3.411  2104.082    39.645    44.899     5.481     0.041     0.076     4.386  1220.229     2.195     0.001 .00000E+00 0.000E+00 0.000E+00 0.000E+00 0.000E+00 0.000E+00
BIGSUB  73        0  3.0.19206E-01  3496.007     0.000  1461.187   884.974    91.152    16.437   994.654     4.450  2594.015    72.729    53.292     6.560     0.061     0.044     5.361  1594.051     2.018     0.001 .00000E+00 0.000E+00 0.000E+00 0.000E+00 0.000E+00 0.000E+00
BIGSUB  74        0  3.0.17343E-01  3187.023     0.000  1511.534   883.180    86.544    25.514   764.968    13.270  2289.316    45.004    53.309     6.511     0.047     0.028     5.203  1509.782     2.408     0.004 .00000E+00 0.000E+00 0.000E+00 0.000E+00 0.000E+00 0.000E+00
BIGSUB  75        0  3.0.19188E-01  3496.007     0.000  1461.464   885.059    90.828    19.672  1002.503     7.672  2594.019    69.981    52.733     6.498     0.063     0.048     5.322  1582.824     1.982     0.002 .00000E+00 0.000E+00 0.000E+00 0.000E+00 0.000E+00 0.000E+00
BIGSUB  76        0  3.0.15291E-01  3340.782     0.000  1509.856   890.633    83.462    13.481   996.432     5.833  2440.220    53.422    52.254     6.388     0.091     0.039     5.099  1437.271     2.025     0.002 .00000E+00 0.000E+00 0.000E+00 0.000E+00 0.000E+00 0.000E+00
BIGSUB  77        0  3.0.32760E-02  3033.264     0.000  1562.768  1055.789    11.011    11.001  1962.978     0.000  1963.522     0.000     0.000     0.000     0.011     0.346     0.000     0.001     0.000     0.000 .00000E+00 0.000E+00 0.000E+00 0.000E+00 0.000E+00 0.000E+00
BIGSUB  78        0  3.0.11610E-02  3033.263     0.000  1562.797  1055.164    11.011    10.994  1963.632     0.000  1964.177     0.000     0.000     0.000     0.012     0.346     0.000     0.002     0.000     0.000 .00000E+00 0.000E+00 0.000E+00 0.000E+00 0.000E+00 0.000E+00
BIGSUB  79        0  3.0.22680E-02  3340.783     0.000  1510.387   889.541    88.952    16.055   869.252     5.102  2436.711    64.392    54.870     6.707     0.053     0.026     5.394  1561.526     2.377     0.001 .00000E+00 0.000E+00 0.000E+00 0.000E+00 0.000E+00 0.000E+00
BIGSUB  80        0  3.0.18747E-01  3340.782     0.000  1510.210   893.580    84.655    16.289   954.202     7.948  2436.583    53.873    52.660     6.438     0.079     0.037     5.142  1473.606     2.074     0.002 .00000E+00 0.000E+00 0.000E+00 0.000E+00 0.000E+00 0.000E+00
BIGSUB  81        0  3.0.18630E-01  3340.783     0.000  1510.696   891.226    88.981    24.446   856.375    12.378  2434.385    73.143    55.031     6.727     0.049     0.026     5.418  1564.382     2.353     0.003 .00000E+00 0.000E+00 0.000E+00 0.000E+00 0.000E+00 0.000E+00
BIGSUB  82        0  3.0.39420E-02  3340.782     0.000  1510.892   888.645    88.595    23.232   868.543    11.741  2437.410    76.059    55.042     6.728     0.053     0.026     5.419  1555.936     2.379     0.003 .00000E+00 0.000E+00 0.000E+00 0.000E+00 0.000E+00 0.000E+00
BIGSUB  83        0  3.0.86400E-02  3340.782     0.000  1510.934   890.941    89.305    17.003   847.481     5.288  2434.564    68.507    55.306     6.760     0.047     0.025     5.441  1580.914     2.387     0.001 .00000E+00 0.000E+00 0.000E+00 0.000E+00 0.000E+00 0.000E+00
BIGSUB  84        0  3.0.14733E-01  3340.782     0.000  1510.953   891.134    89.317    20.640   847.812     8.579  2434.213    71.372    55.341     6.765     0.047     0.025     5.448  1576.760     2.378     0.002 .00000E+00 0.000E+00 0.000E+00 0.000E+00 0.000E+00 0.000E+00
BIGSUB  85        0  3.0.72000E-04  3340.782     0.000  1511.343   929.039    93.964   244.597   923.031   201.796  2376.126     9.746    44.606     5.460     0.036     0.090     4.252  1239.053     1.907     0.047 .00000E+00 0.000E+00 0.000E+00 0.000E+00 0.000E+00 0.000E+00
BIGSUB  86        0  3.0.48870E-02  3340.782     0.000  1511.167   891.889    89.373    34.911   849.068    21.211  2432.542    52.766    53.632     6.555     0.047     0.029     5.254  1560.488     2.349     0.006 .00000E+00 0.000E+00 0.000E+00 0.000E+00 0.000E+00 0.000E+00
BIGSUB  87        0  3.0.16938E-01  3340.782     0.000  1511.026   891.789    89.361    32.750   848.924    19.724  2433.204    70.181    54.849     6.705     0.046     0.027     5.399  1562.890     2.355     0.005 .00000E+00 0.000E+00 0.000E+00 0.000E+00 0.000E+00 0.000E+00
BIGSUB  88        0  3.0.41400E-03  3340.782     0.000  1511.432   906.022    93.965    32.840   885.200     3.771  2401.627    19.362    52.929     6.471     0.048     0.044     5.086  1510.943     2.203     0.000 .00000E+00 0.000E+00 0.000E+00 0.000E+00 0.000E+00 0.000E+00
BIGSUB  89        0  3.0.18900E-01  3340.783     0.000  1511.126   891.289    89.333    23.935   848.039    10.944  2433.295    61.323    54.636     6.678     0.047     0.026     5.366  1573.084     2.362     0.003 .00000E+00 0.000E+00 0.000E+00 0.000E+00 0.000E+00 0.000E+00
BIGSUB  90        0  3.0.13212E-01  3340.782     0.000  1510.922   891.188    89.320    22.302   847.914     9.608  2433.611    61.787    54.701     6.686     0.047     0.026     5.373  1574.942     2.368     0.003 .00000E+00 0.000E+00 0.000E+00 0.000E+00 0.000E+00 0.000E+00
BIGSUB  91        0  3.0.89460E-02  3340.782     0.000  1511.057   891.767    89.361    33.062   848.893    19.275  2432.494    53.426    53.767     6.571     0.047     0.029     5.268  1562.642     2.347     0.005 .00000E+00 0.000E+00 0.000E+00 0.000E+00 0.000E+00 0.000E+00
BIGSUB  92        0  3.0.17118E-01  3340.783     0.000  1511.260   895.567    89.526    64.265   853.773    48.137  2427.968    56.774    52.515     6.419     0.174     0.035     5.153  1522.824     2.375     0.016 .00000E+00 0.000E+00 0.000E+00 0.000E+00 0.000E+00 0.000E+00
BIGSUB  93        0  3.0.19701E-01  3187.023     0.000  1511.578   883.515    86.576    30.328   765.514    18.380  2289.519    56.822    53.899     6.583     0.046     0.026     5.285  1504.089     2.410     0.005 .00000E+00 0.000E+00 0.000E+00 0.000E+00 0.000E+00 0.000E+00
BIGSUB  94        0  3.0.76050E-02  3187.023     0.000  1511.817   883.373    86.571    28.431   765.241    15.812  2288.902    38.228    52.756     6.443     0.048     0.030     5.133  1506.407     2.404     0.004 .00000E+00 0.000E+00 0.000E+00 0.000E+00 0.000E+00 0.000E+00
BIGSUB  95        0  3.0.45900E-03  3187.023     0.000  1511.927   883.903    86.625    36.804   766.089    23.931  2288.524    30.904    51.911     6.340     0.048     0.034     5.030  1496.646     2.406     0.007 .00000E+00 0.000E+00 0.000E+00 0.000E+00 0.000E+00 0.000E+00
BIGSUB  96        0  3.0.26955E-01  3187.022     0.000  1511.992   883.620    86.595    29.949   765.294    18.641  2290.026    70.244    54.742     6.687     0.049     0.025     5.385  1504.577     2.443     0.005 .00000E+00 0.000E+00 0.000E+00 0.000E+00 0.000E+00 0.000E+00
BIGSUB  97        0  3.0.26874E-01  3187.023     0.000  1512.117   898.853    80.404    45.527   906.034    32.294  2273.587    58.184    49.096     5.997     0.052     0.059     4.824  1332.972     2.186     0.009 .00000E+00 0.000E+00 0.000E+00 0.000E+00 0.000E+00 0.000E+00
BIGSUB  98        0  3.0.26100E-03  3187.023     0.000  1512.569  1050.140    11.396    11.951  2121.361     0.000  2121.970     0.000     0.000     0.000     0.012     0.371     0.000     0.020     0.000     0.000 .00000E+00 0.000E+00 0.000E+00 0.000E+00 0.000E+00 0.000E+00
BIGSUB  99        0  3.0.24390E-02  3187.022     0.000  1512.497  1014.961    27.543    11.493  1829.878     0.000  2157.506    10.364    11.573     1.414     0.020     0.297     1.131   327.056     0.531     0.000 .00000E+00 0.000E+00 0.000E+00 0.000E+00 0.000E+00 0.000E+00
BIGSUB 100        0  3.0.77310E-02  3187.023     0.000  1512.339   973.957    45.487    10.952  1504.850     0.000  2199.057    25.974    24.817     3.031     0.028     0.213     2.433   693.656     1.121     0.000 .00000E+00 0.000E+00 0.000E+00 0.000E+00 0.000E+00 0.000E+00
BIGSUB 101        0  3.0.38520E-02  3187.022     0.000  1512.398   919.144    70.842    34.844  1051.316    22.749  2253.795    42.344    42.058     5.137     0.039     0.100     4.120  1177.979     1.902     0.006 .00000E+00 0.000E+00 0.000E+00 0.000E+00 0.000E+00 0.000E+00
BIGSUB 102        0  3.0.79290E-02  3187.023     0.000  1512.539   983.744    40.954    15.580  1589.635     4.126  2189.137    19.051    21.245     2.595     0.027     0.235     2.076   594.596     0.965     0.001 .00000E+00 0.000E+00 0.000E+00 0.000E+00 0.000E+00 0.000E+00
BIGSUB 103        0  3.0.18828E-01  3033.263     0.000  1562.678   968.672    11.323     7.938  2040.524     0.000  2053.575     0.286     0.457     0.056     0.038     0.361     0.044    12.660     0.023     0.000 .00000E+00 0.000E+00 0.000E+00 0.000E+00 0.000E+00 0.000E+00
BIGSUB 104        0  3.0.40950E-02  3033.263     0.000  1562.815   975.282    10.727     8.152  2046.066     0.000  2046.467     0.000     0.000     0.000     0.036     0.363     0.000     0.000     0.000     0.000 .00000E+00 0.000E+00 0.000E+00 0.000E+00 0.000E+00 0.000E+00
BIGSUB 105        0  3.0.49500E-02  2721.814     0.000  1562.837  1023.104    10.731     9.877  1685.357     0.000  1685.847     0.000     0.000     0.000     0.011     0.302     0.000     0.001     0.000     0.000 .00000E+00 0.000E+00 0.000E+00 0.000E+00 0.000E+00 0.000E+00
BIGSUB 106        0  3.0.23976E-01  2721.814     0.000  1562.510   945.465    45.866     8.498  1053.366     0.365  1765.958    22.186    28.305     3.456     0.024     0.151     2.759   711.805     1.357     0.000 .00000E+00 0.000E+00 0.000E+00 0.000E+00 0.000E+00 0.000E+00
BIGSUB 107        0  3.0.10170E-01  2721.814     0.000  1562.430   915.193    55.967     7.080   868.644     0.000  1797.524    26.668    36.791     4.492     0.029     0.107     3.581   928.529     1.771     0.000 .00000E+00 0.000E+00 0.000E+00 0.000E+00 0.000E+00 0.000E+00
