1
    SWAT Dec 23 2016    VER 2016/Rev 664                                                                 0/ 0/   0      0: 0: 0

    General Input/Output section (file.cio):                                        
    2/12/2020 14:36:12 QSWAT Workflow v1.5.2                                        
                                                                                    
         Number of years in run:    5
         Area of watershed:        1.468 km2
1
    SWAT Dec 23 2016    VER 2016/Rev 664                                            

    General Input/Output section (file.cio):                                        
    2/12/2020 14:36:12 QSWAT Workflow v1.5.2                                        
                                                                                    
Annual Summary for Watershed in year    1 of simulation

UNIT                                    PERCO    TILE                           WATER     SED     NO3     NO3     NO3     NO3        N       P       P
TIME     PREC    SURQ    LATQ     GWQ    LATE       Q     SW       ET     PET   YIELD   YIELD    SURQ    LATQ    PERC    CROP  ORGANIC SOLUBLE ORGANIC TILENO3
         (mm)    (mm)    (mm)    (mm)    (mm)    (mm)    (mm)    (mm)    (mm)    (mm)   (t/ha)  ------------------(kg nutrient/ha)-------------------- (kg/ha)
1
    SWAT Dec 23 2016    VER 2016/Rev 664                                            

    General Input/Output section (file.cio):                                        
    2/12/2020 14:36:12 QSWAT Workflow v1.5.2                                        
                                                                                    
Annual Summary for Watershed in year    2 of simulation

UNIT                                    PERCO    TILE                           WATER     SED     NO3     NO3     NO3     NO3        N       P       P
TIME     PREC    SURQ    LATQ     GWQ    LATE       Q     SW       ET     PET   YIELD   YIELD    SURQ    LATQ    PERC    CROP  ORGANIC SOLUBLE ORGANIC TILENO3
         (mm)    (mm)    (mm)    (mm)    (mm)    (mm)    (mm)    (mm)    (mm)    (mm)   (t/ha)  ------------------(kg nutrient/ha)-------------------- (kg/ha)
1
    SWAT Dec 23 2016    VER 2016/Rev 664                                            

    General Input/Output section (file.cio):                                        
    2/12/2020 14:36:12 QSWAT Workflow v1.5.2                                        
                                                                                    
Annual Summary for Watershed in year    3 of simulation

UNIT                                    PERCO    TILE                           WATER     SED     NO3     NO3     NO3     NO3        N       P       P
TIME     PREC    SURQ    LATQ     GWQ    LATE       Q     SW       ET     PET   YIELD   YIELD    SURQ    LATQ    PERC    CROP  ORGANIC SOLUBLE ORGANIC TILENO3
         (mm)    (mm)    (mm)    (mm)    (mm)    (mm)    (mm)    (mm)    (mm)    (mm)   (t/ha)  ------------------(kg nutrient/ha)-------------------- (kg/ha)
1
    SWAT Dec 23 2016    VER 2016/Rev 664                                            

    General Input/Output section (file.cio):                                        
    2/12/2020 14:36:12 QSWAT Workflow v1.5.2                                        
                                                                                    
Annual Summary for Watershed in year    4 of simulation

UNIT                                    PERCO    TILE                           WATER     SED     NO3     NO3     NO3     NO3        N       P       P
TIME     PREC    SURQ    LATQ     GWQ    LATE       Q     SW       ET     PET   YIELD   YIELD    SURQ    LATQ    PERC    CROP  ORGANIC SOLUBLE ORGANIC TILENO3
         (mm)    (mm)    (mm)    (mm)    (mm)    (mm)    (mm)    (mm)    (mm)    (mm)   (t/ha)  ------------------(kg nutrient/ha)-------------------- (kg/ha)
    1   26.90    5.81    9.57    0.01    0.02    0.00   83.93    2.28    2.33   15.37    0.47    0.00    0.01    0.00    0.00     0.77    0.00    0.09    0.00
    2    1.00    0.00    3.29    0.01    0.00    0.00   81.84    3.09    3.90    3.33    0.00    0.00    0.00    0.00    0.00     0.00    0.00    0.00    0.00
    3   15.50    1.55    6.87    0.01    0.01    0.00   83.08    3.94    4.71    8.42    0.08    0.00    0.01    0.00    0.00     0.12    0.00    0.02    0.00
    4    6.40    0.20    4.09    0.01    0.00    0.00   82.06    4.58    5.73    4.31    0.00    0.00    0.00    0.00    0.00     0.00    0.00    0.00    0.00
    5   25.70    5.64   10.60    0.01    0.03    0.00   83.49    4.60    5.74   16.23    0.81    0.00    0.02    0.00    0.00     1.14    0.00    0.14    0.00
    6    1.30    0.00    3.72    0.01    0.00    0.00   80.98    3.69    5.77    3.75    0.00    0.00    0.01    0.00    0.00     0.00    0.00    0.00    0.00
    7    0.00    0.00    1.28    0.01    0.00    0.00   78.67    2.31    5.75    1.29    0.00    0.00    0.00    0.00    0.00     0.00    0.00    0.00    0.00
    8    0.00    0.00    0.44    0.01    0.00    0.00   76.89    1.78    5.97    0.45    0.00    0.00    0.00    0.00    0.00     0.00    0.00    0.00    0.00
    9   70.90   33.03   15.32    0.01    0.12    0.00   87.86    3.68    4.27   48.32    4.59    0.00    0.02    0.00    0.00     6.99    0.00    0.85    0.00
   10   49.80   22.04   19.86    0.01    0.48    0.00   89.28    3.61    4.13   41.87    0.01    0.00    0.04    0.03    0.00     5.06    0.00    0.62    0.00
   11   53.10   24.92   22.26    0.01    0.90    0.00   90.91    2.14    2.17   47.18    4.08    0.00    0.06    0.07    0.00     4.63    0.00    0.57    0.00
   12   38.90   14.74   21.41    0.01    0.96    0.00   91.30    1.85    1.88   36.18    0.00    0.00    0.06    0.07    0.00     1.94    0.00    0.24    0.00
   13   15.00    1.84   14.41    0.01    0.48    0.00   91.36    1.87    1.90   16.30    0.05    0.00    0.04    0.03    0.00     0.06    0.00    0.01    0.00
   14   23.40    5.34   15.05    0.01    0.70    0.00   91.26    2.07    2.10   20.39    0.27    0.00    0.04    0.05    0.00     0.37    0.00    0.04    0.00
   15   17.50    2.70   13.12    0.01    0.54    0.00   91.01    2.41    2.44   15.84    0.02    0.00    0.04    0.04    0.00     0.24    0.00    0.03    0.00
   16    8.40    0.47    8.00    0.01    0.19    0.00   90.72    2.71    2.75    8.50    0.00    0.00    0.02    0.01    0.00     0.00    0.00    0.00    0.00
   17   32.30   10.31   14.87    0.01    0.78    0.00   90.62    2.85    2.94   25.16    0.68    0.00    0.04    0.06    0.00     0.79    0.00    0.10    0.00
   18    2.50    0.06    5.54    0.02    0.01    0.00   89.93    2.46    2.53    5.66    0.00    0.00    0.01    0.00    0.00     0.00    0.00    0.00    0.00
   19   10.70    0.75    6.09    0.02    0.12    0.00   91.20    2.19    2.22    6.86    0.02    0.00    0.01    0.01    0.00     0.01    0.00    0.00    0.00
   20    8.60    0.49    5.81    0.02    0.23    0.00   89.53    3.89    4.57    6.32    0.00    0.00    0.01    0.02    0.00     0.00    0.00    0.00    0.00
   21    1.80    0.03    2.22    0.02    0.01    0.00   87.65    3.29    4.44    2.28    0.00    0.00    0.00    0.00    0.00     0.00    0.00    0.00    0.00
   22    8.10    0.44    2.90    0.02    0.01    0.00   88.30    3.74    4.36    3.36    0.00    0.00    0.00    0.00    0.00     0.00    0.00    0.00    0.00
   23    0.00    0.00    1.00    0.02    0.01    0.00   86.02    2.27    4.18    1.03    0.00    0.00    0.00    0.00    0.00     0.00    0.00    0.00    0.00
   24    0.00    0.00    0.34    0.02    0.01    0.00   84.06    1.95    4.75    0.37    0.00    0.00    0.00    0.00    0.00     0.00    0.00    0.00    0.00
   25    6.60    0.31    1.70    0.02    0.01    0.00   84.34    3.58    5.38    2.04    0.00    0.00    0.00    0.00    0.00     0.00    0.00    0.00    0.00
   26    0.00    0.00    0.59    0.02    0.01    0.00   82.23    2.09    4.99    0.62    0.00    0.00    0.00    0.00    0.00     0.00    0.00    0.00    0.00
   27    8.40    0.46    2.33    0.02    0.01    0.00   83.39    3.53    5.00    2.81    0.00    0.00    0.00    0.00    0.00     0.00    0.00    0.00    0.00
   28   28.20    7.17    9.78    0.02    0.03    0.00   86.88    3.83    4.49   16.95    0.59    0.00    0.01    0.00    0.00     0.62    0.00    0.08    0.00
   29   70.90   39.09   20.54    0.02    0.73    0.00   88.74    3.05    3.25   59.60    3.03    0.00    0.04    0.05    0.00     3.95    0.00    0.48    0.00
   30    6.60    0.32    9.21    0.02    0.02    0.00   90.18    1.56    1.58    9.64    0.00    0.00    0.01    0.00    0.00     0.00    0.00    0.00    0.00
   31   38.10   14.29   17.03    0.03    0.98    0.00   90.77    1.10    1.12   31.32    1.61    0.00    0.04    0.07    0.00     1.46    0.00    0.18    0.00
    1  576.60  191.99  269.25    0.47    7.41    0.00   90.77   87.99  117.36  461.74   16.31    0.01    0.56    0.52    0.00    28.16    0.02    3.44    0.00
   32    2.50    0.06    6.67    0.03    0.04    0.00   88.93    2.99    3.15    6.81    0.00    0.00    0.02    0.00    0.00     0.00    0.00    0.00    0.00
   33    5.80    0.26    4.04    0.03    0.01    0.00   90.97    0.83    0.84    4.33    0.00    0.00    0.01    0.00    0.00     0.00    0.00    0.00    0.00
   34    8.90    0.52    6.00    0.03    0.30    0.00   88.55    3.46    3.89    6.55    0.00    0.00    0.01    0.02    0.00     0.00    0.00    0.00    0.00
   35   24.10    5.57   11.64    0.03    0.53    0.00   88.68    3.28    3.61   17.21    0.71    0.00    0.03    0.04    0.00     0.57    0.00    0.07    0.00
   36   21.30    4.23   12.75    0.03    0.48    0.00   89.52    2.42    2.45   17.01    0.00    0.00    0.03    0.03    0.00     0.28    0.00    0.03    0.00
   37    3.30    0.10    5.06    0.03    0.01    0.00   89.92    1.76    1.79    5.21    0.00    0.00    0.01    0.00    0.00     0.00    0.00    0.00    0.00
   38    7.90    0.43    5.17    0.03    0.19    0.00   88.12    3.84    4.19    5.63    0.00    0.00    0.01    0.01    0.01     0.00    0.00    0.00    0.00
   39   70.60   39.18   19.20    0.03    1.08    0.00   89.44    2.47    2.47   58.33    3.08    0.00    0.04    0.08    0.20     2.98    0.00    0.36    0.00
   40    0.30    0.00    6.60    0.03    0.01    0.00   87.20    2.54    3.56    6.72    0.00    0.00    0.01    0.00    0.31     0.00    0.00    0.00    0.00
   41    0.00    0.00    2.27    0.03    0.01    0.00   85.68    1.51    2.40    2.31    0.00    0.00    0.00    0.00    0.19     0.00    0.00    0.00    0.00
   42    0.00    0.00    0.78    0.03    0.01    0.00   84.02    1.65    2.92    0.82    0.00    0.00    0.00    0.00    0.26     0.00    0.00    0.00    0.00
   43    0.00    0.00    0.27    0.03    0.01    0.00   81.75    2.27    5.21    0.30    0.00    0.00    0.00    0.00    0.25     0.00    0.00    0.00    0.00
   44    0.00    0.00    0.09    0.03    0.00    0.00   79.59    2.16    4.78    0.13    0.00    0.00    0.00    0.00    0.47     0.00    0.00    0.00    0.00
   45    0.00    0.00    0.03    0.03    0.00    0.00   77.55    2.03    4.35    0.07    0.00    0.00    0.00    0.00    0.46     0.00    0.00    0.00    0.00
   46    0.00    0.00    0.01    0.03    0.00    0.00   75.68    1.87    3.94    0.05    0.00    0.00    0.00    0.00    0.37     0.00    0.00    0.00    0.00
   47    0.00    0.00    0.00    0.03    0.00    0.00   73.22    2.46    4.89    0.04    0.00    0.00    0.00    0.00    0.44     0.00    0.00    0.00    0.00
   48    0.00    0.00    0.00    0.03    0.00    0.00   71.60    1.62    2.55    0.04    0.00    0.00    0.00    0.00    0.30     0.00    0.00    0.00    0.00
   49    0.00    0.00    0.00    0.03    0.00    0.00   69.38    2.22    3.55    0.04    0.00    0.00    0.00    0.00    0.45     0.00    0.00    0.00    0.00
   50    0.00    0.00    0.00    0.03    0.00    0.00   67.23    2.15    3.75    0.04    0.00    0.00    0.00    0.00    0.24     0.00    0.00    0.00    0.00
   51    0.00    0.00    0.00    0.03    0.00    0.00   65.15    2.07    3.90    0.04    0.00    0.00    0.00    0.00    0.30     0.00    0.00    0.00    0.00
   52    0.00    0.00    0.00    0.03    0.00    0.00   62.59    2.57    4.82    0.04    0.00    0.00    0.00    0.00    0.30     0.00    0.00    0.00    0.00
   53    0.00    0.00    0.00    0.03    0.00    0.00   60.23    2.36    4.38    0.04    0.00    0.00    0.00    0.00    0.28     0.00    0.00    0.00    0.00
   54    0.00    0.00    0.00    0.03    0.00    0.00   57.67    2.56    4.90    0.04    0.00    0.00    0.00    0.00    0.23     0.00    0.00    0.00    0.00
   55    0.00    0.00    0.00    0.03    0.00    0.00   55.29    2.39    4.11    0.04    0.00    0.00    0.00    0.00    0.25     0.00    0.00    0.00    0.00
   56    0.00    0.00    0.00    0.03    0.00    0.00   52.60    2.69    5.15    0.04    0.00    0.00    0.00    0.00    0.16     0.00    0.00    0.00    0.00
   57    0.00    0.00    0.00    0.03    0.00    0.00   49.83    2.77    5.19    0.04    0.00    0.00    0.00    0.00    0.20     0.00    0.00    0.00    0.00
   58    0.00    0.00    0.00    0.03    0.00    0.00   47.44    2.39    4.79    0.04    0.00    0.00    0.00    0.00    0.16     0.00    0.00    0.00    0.00
   59    0.00    0.00    0.00    0.03    0.00    0.00   44.99    2.45    5.26    0.04    0.00    0.00    0.00    0.00    0.11     0.00    0.00    0.00    0.00
    2  144.70   50.34   80.59    0.88    2.70    0.00   44.99   65.77  106.81  131.98    3.79    0.00    0.17    0.18    5.95     3.83    0.00    0.47    0.00
   60    0.00    0.00    0.00    0.03    0.00    0.00   42.54    2.45    4.20    0.04    0.00    0.00    0.00    0.00    0.12     0.00    0.00    0.00    0.00
   61    0.00    0.00    0.00    0.03    0.00    0.00   40.21    2.33    3.85    0.04    0.00    0.00    0.00    0.00    0.02     0.00    0.00    0.00    0.00
   62    0.00    0.00    0.00    0.03    0.00    0.00   37.64    2.57    4.36    0.03    0.00    0.00    0.00    0.00    0.01     0.00    0.00    0.00    0.00
   63    0.00    0.00    0.00    0.03    0.00    0.00   35.40    2.24    3.41    0.03    0.00    0.00    0.00    0.00    0.05     0.00    0.00    0.00    0.00
   64    0.00    0.00    0.00    0.03    0.00    0.00   33.37    2.03    5.15    0.03    0.00    0.00    0.00    0.00    0.01     0.00    0.00    0.00    0.00
   65    0.00    0.00    0.00    0.03    0.00    0.00   32.13    1.24    3.46    0.03    0.00    0.00    0.00    0.00    0.10     0.00    0.00    0.00    0.00
   66    0.00    0.00    0.00    0.03    0.00    0.00   31.10    1.03    1.86    0.03    0.00    0.00    0.00    0.00    0.02     0.00    0.00    0.00    0.00
   67    0.00    0.00    0.00    0.03    0.00    0.00   30.33    0.76    1.12    0.03    0.00    0.00    0.00    0.00    0.01     0.00    0.00    0.00    0.00
   68    0.00    0.00    0.00    0.03    0.00    0.00   28.50    1.83    3.03    0.03    0.00    0.00    0.00    0.00    0.01     0.00    0.00    0.00    0.00
   69    0.00    0.00    0.00    0.03    0.00    0.00   26.32    2.19    4.38    0.03    0.00    0.00    0.00    0.00    0.01     0.00    0.00    0.00    0.00
   70    5.60    0.00    1.29    0.03    0.00    0.00   26.89    3.06    4.12    1.32    0.00    0.00    0.00    0.00    0.01     0.00    0.00    0.00    0.00
   71    0.00    0.00    0.44    0.03    0.00    0.00   24.29    2.60    4.32    0.47    0.00    0.00    0.00    0.00    0.01     0.00    0.00    0.00    0.00
   72    1.80    0.00    0.32    0.03    0.00    0.00   22.66    3.18    3.99    0.35    0.00    0.00    0.00    0.00    0.01     0.00    0.00    0.00    0.00
   73    0.00    0.00    0.11    0.03    0.00    0.00   20.47    2.19    3.77    0.14    0.00    0.00    0.00    0.00    0.01     0.00    0.00    0.00    0.00
   74    2.80    0.00    0.52    0.02    0.00    0.00   19.25    3.29    4.46    0.55    0.00    0.00    0.00    0.00    0.01     0.00    0.00    0.00    0.00
   75   14.20    0.06    4.07    0.01    0.00    0.00   23.52    3.93    4.55    4.15    0.01    0.00    0.00    0.00    0.07     0.00    0.00    0.00    0.00
   76    0.50    0.00    1.40    0.01    0.00    0.00   20.65    3.37    4.95    1.41    0.00    0.00    0.00    0.00    0.12     0.00    0.00    0.00    0.00
   77    0.00    0.00    0.48    0.01    0.00    0.00   18.11    2.54    3.50    0.49    0.00    0.00    0.00    0.00    0.14     0.00    0.00    0.00    0.00
   78    5.60    0.03    1.46    0.01    0.00    0.00   17.84    3.87    5.04    1.50    0.00    0.00    0.00    0.00    0.09     0.00    0.00    0.00    0.00
   79    6.40    0.06    2.07    0.01    0.00    0.00   18.67    3.12    3.72    2.14    0.00    0.00    0.00    0.00    0.15     0.00    0.00    0.00    0.00
   80   17.80    0.84    5.70    0.01    0.00    0.00   25.00    3.04    3.33    6.54    0.01    0.00    0.00    0.00    0.07     0.00    0.00    0.00    0.00
   81    2.00    0.01    2.26    0.01    0.00    0.00   22.80    3.72    4.37    2.30    0.00    0.00    0.00    0.00    0.08     0.00    0.00    0.00    0.00
   82   17.30    0.92    6.01    0.01    0.00    0.00   28.55    2.67    2.83    6.92    0.02    0.00    0.00    0.00    0.15     0.00    0.00    0.00    0.00
   83    0.00    0.00    2.06    0.01    0.00    0.00   26.40    2.14    2.72    2.09    0.00    0.00    0.00    0.00    0.06     0.00    0.00    0.00    0.00
   84    3.30    0.03    1.40    0.01    0.00    0.00   25.59    3.03    3.39    1.44    0.00    0.00    0.00    0.00    0.06     0.00    0.00    0.00    0.00
   85   11.70    0.51    4.15    0.01    0.00    0.00   26.76    4.44    4.72    4.66    0.01    0.00    0.00    0.00    0.07     0.00    0.00    0.00    0.00
   86    3.00    0.03    1.95    0.01    0.00    0.00   26.46    2.47    2.77    2.00    0.00    0.00    0.00    0.00    0.13     0.00    0.00    0.00    0.00
   87    1.00    0.00    0.71    0.01    0.00    0.00   24.44    2.95    3.44    0.73    0.00    0.00    0.00    0.00    0.06     0.00    0.00    0.00    0.00
   88    0.80    0.00    0.25    0.01    0.00    0.00   22.70    2.53    3.19    0.26    0.00    0.00    0.00    0.00    0.09     0.00    0.00    0.00    0.00
   89    0.00    0.00    0.08    0.01    0.00    0.00   20.55    2.15    2.99    0.09    0.00    0.00    0.00    0.00    0.08     0.00    0.00    0.00    0.00
   90    0.00    0.00    0.03    0.00    0.00    0.00   18.03    2.52    4.38    0.04    0.00    0.00    0.00    0.00    0.07     0.00    0.00    0.00    0.00
    3   93.80    2.48   36.76    0.54    0.02    0.00   18.03   81.49  115.39   39.91    0.05    0.00    0.00    0.00    1.90     0.00    0.00    0.00    0.00
   91    0.30    0.00    0.01    0.00    0.00    0.00   15.64    2.70    4.74    0.02    0.00    0.00    0.00    0.00    0.13     0.00    0.00    0.00    0.00
   92    0.30    0.00    0.00    0.00    0.00    0.00   14.59    1.35    3.41    0.01    0.00    0.00    0.00    0.00    0.13     0.00    0.00    0.00    0.00
   93    0.30    0.00    0.00    0.00    0.00    0.00   13.57    1.32    4.71    0.01    0.00    0.00    0.00    0.00    0.04     0.00    0.00    0.00    0.00
   94    2.50    0.00    0.41    0.00    0.00    0.00   13.32    2.13    4.20    0.41    0.00    0.00    0.00    0.00    0.04     0.00    0.00    0.00    0.00
   95    2.30    0.00    0.48    0.00    0.00    0.00   12.77    2.33    4.56    0.49    0.00    0.00    0.00    0.00    0.05     0.00    0.00    0.00    0.00
   96    4.30    0.00    1.08    0.00    0.00    0.00   12.57    3.11    5.22    1.09    0.00    0.00    0.00    0.00    0.05     0.00    0.00    0.00    0.00
   97    0.00    0.00    0.37    0.00    0.00    0.00   11.49    1.08    5.58    0.38    0.00    0.00    0.00    0.00    0.10     0.00    0.00    0.00    0.00
   98    0.00    0.00    0.13    0.00    0.00    0.00   10.85    0.65    4.32    0.13    0.00    0.00    0.00    0.00    0.03     0.00    0.00    0.00    0.00
   99    1.80    0.00    0.19    0.00    0.00    0.00   10.89    1.53    4.03    0.20    0.00    0.00    0.00    0.00    0.02     0.00    0.00    0.00    0.00
  100    0.00    0.00    0.07    0.00    0.00    0.00   10.24    0.65    4.44    0.07    0.00    0.00    0.00    0.00    0.03     0.00    0.00    0.00    0.00
  101   11.90    0.03    3.23    0.00    0.00    0.00   13.47    3.75    4.99    3.27    0.01    0.00    0.00    0.00    0.02     0.00    0.00    0.00    0.00
  102    1.80    0.00    1.30    0.00    0.00    0.00   12.21    2.77    3.71    1.31    0.00    0.00    0.00    0.00    0.11     0.00    0.00    0.00    0.00
  103    1.30    0.00    0.54    0.00    0.00    0.00   11.58    1.78    3.23    0.55    0.00    0.00    0.00    0.00    0.00     0.00    0.00    0.00    0.00
  104    2.80    0.00    0.78    0.00    0.00    0.00   11.79    1.68    2.73    0.79    0.00    0.00    0.00    0.00    0.00     0.00    0.00    0.00    0.00
  105    2.30    0.00    0.73    0.00    0.00    0.00   11.39    1.99    3.39    0.74    0.00    0.00    0.00    0.00    0.00     0.00    0.00    0.00    0.00
  106    0.00    0.00    0.25    0.00    0.00    0.00   10.99    0.41    1.46    0.26    0.00    0.00    0.00    0.00    0.00     0.00    0.00    0.00    0.00
  107    0.00    0.00    0.09    0.00    0.00    0.00   10.42    0.57    2.90    0.09    0.00    0.00    0.00    0.00    0.00     0.00    0.00    0.00    0.00
  108    0.00    0.00    0.03    0.00    0.00    0.00   10.18    0.24    1.18    0.03    0.00    0.00    0.00    0.00    0.00     0.00    0.00    0.00    0.00
  109    0.00    0.00    0.01    0.00    0.00    0.00    9.84    0.34    2.08    0.01    0.00    0.00    0.00    0.00    0.00     0.00    0.00    0.00    0.00
  110    0.30    0.00    0.00    0.00    0.00    0.00    9.74    0.40    2.25    0.01    0.00    0.00    0.00    0.00    0.00     0.00    0.00    0.00    0.00
  111    1.00    0.00    0.00    0.00    0.00    0.00    9.33    1.41    4.16    0.01    0.00    0.00    0.00    0.00    0.00     0.00    0.00    0.00    0.00
  112    1.30    0.00    0.05    0.00    0.00    0.00    9.33    1.22    3.44    0.05    0.00    0.00    0.00    0.00    0.00     0.00    0.00    0.00    0.00
  113   98.00   16.55   32.23    0.00    0.03    0.00   38.12    3.23    3.28   48.75    0.62    0.00    0.01    0.00    0.00     0.05    0.00    0.01    0.00
  114    0.80    0.00   11.07    0.00    0.02    0.00   37.23    1.68    1.88   11.10    0.00    0.00    0.00    0.00    0.00     0.00    0.00    0.00    0.00
  115    0.00    0.00    3.80    0.00    0.02    0.00   33.54    3.67    5.04    3.81    0.00    0.00    0.00    0.00    0.00     0.00    0.00    0.00    0.00
  116    0.50    0.00    1.31    0.00    0.02    0.00   30.95    3.08    4.80    1.31    0.00    0.00    0.00    0.00    0.00     0.00    0.00    0.00    0.00
  117    7.10    0.35    2.23    0.00    0.02    0.00   31.09    3.88    5.04    2.58    0.00    0.00    0.00    0.00    0.00     0.00    0.00    0.00    0.00
  118   24.90    1.86    9.36    0.00    0.03    0.00   37.98    3.03    4.24   11.20    0.05    0.00    0.00    0.00    0.00     0.00    0.00    0.00    0.00
  119    3.80    0.13    4.04    0.00    0.02    0.00   37.29    3.10    4.00    4.20    0.00    0.00    0.00    0.00    0.00     0.00    0.00    0.00    0.00
  120   69.30   19.25   26.28    0.00    0.04    0.00   46.48    2.90    3.39   45.44    0.19    0.00    0.02    0.00    0.00     0.02    0.00    0.00    0.00
    4  238.90   38.17  100.10    0.05    0.18    0.00   46.48   57.94  112.38  138.32    0.87    0.00    0.03    0.00    0.80     0.07    0.00    0.01    0.00
  121    4.60    0.18   10.17    0.00    0.02    0.00   46.55    2.60    2.88   10.44    0.00    0.00    0.01    0.00    0.00     0.00    0.00    0.00    0.00
  122    4.60    0.18    4.71    0.00    0.02    0.00   46.37    2.74    3.11    4.89    0.00    0.00    0.00    0.00    0.00     0.00    0.00    0.00    0.00
  123    4.60    0.18    2.80    0.00    0.01    0.00   46.06    2.92    3.42    2.98    0.00    0.00    0.00    0.00    0.00     0.00    0.00    0.00    0.00
  124    0.00    0.00    0.96    0.00    0.01    0.00   43.89    2.15    3.91    0.97    0.00    0.00    0.00    0.00    0.00     0.00    0.00    0.00    0.00
  125    0.00    0.00    0.33    0.00    0.01    0.00   41.78    2.10    5.00    0.34    0.00    0.00    0.00    0.00    0.00     0.00    0.00    0.00    0.00
  126    1.00    0.00    0.11    0.00    0.01    0.00   39.82    2.94    6.20    0.12    0.00    0.00    0.00    0.00    0.00     0.00    0.00    0.00    0.00
  127    2.00    0.03    0.31    0.00    0.01    0.00   38.65    2.72    5.44    0.34    0.00    0.00    0.00    0.00    0.00     0.00    0.00    0.00    0.00
  128    1.00    0.00    0.11    0.00    0.01    0.00   37.49    2.15    4.08    0.11    0.00    0.00    0.00    0.00    0.00     0.00    0.00    0.00    0.00
  129    0.00    0.00    0.04    0.00    0.01    0.00   35.97    1.51    4.94    0.04    0.00    0.00    0.00    0.00    0.00     0.00    0.00    0.00    0.00
  130    9.70    0.54    2.54    0.00    0.01    0.00   38.28    3.00    5.23    3.07    0.00    0.00    0.00    0.00    0.00     0.00    0.00    0.00    0.00
  131   33.50    3.96   13.86    0.00    0.02    0.00   46.09    1.93    2.08   17.78    0.05    0.00    0.02    0.00    0.00     0.00    0.00    0.00    0.00
  132    7.90    0.41    7.95    0.00    0.01    0.00   46.15    2.57    2.81    8.39    0.00    0.00    0.01    0.00    0.00     0.00    0.00    0.00    0.00
  133    1.80    0.03    2.96    0.00    0.01    0.00   44.84    2.72    3.35    3.00    0.00    0.00    0.00    0.00    0.00     0.00    0.00    0.00    0.00
  134    5.60    0.24    2.41    0.00    0.01    0.00   44.73    3.33    4.08    2.66    0.00    0.00    0.00    0.00    0.00     0.00    0.00    0.00    0.00
  135    0.50    0.00    0.83    0.00    0.01    0.00   42.66    2.57    4.28    0.84    0.00    0.00    0.00    0.00    0.00     0.00    0.00    0.00    0.00
  136    1.80    0.03    0.48    0.00    0.01    0.00   41.27    2.86    4.55    0.51    0.00    0.00    0.00    0.00    0.00     0.00    0.00    0.00    0.00
  137    0.00    0.00    0.16    0.00    0.01    0.00   39.53    1.74    4.55    0.17    0.00    0.00    0.00    0.00    0.00     0.00    0.00    0.00    0.00
  138    6.90    0.31    1.74    0.00    0.01    0.00   40.40    3.14    5.00    2.05    0.00    0.00    0.00    0.00    0.00     0.00    0.00    0.00    0.00
  139   11.90    0.68    4.24    0.00    0.01    0.00   42.86    3.20    3.93    4.92    0.01    0.00    0.00    0.00    0.00     0.00    0.00    0.00    0.00
  140    0.50    0.00    1.46    0.00    0.00    0.00   40.71    2.65    4.55    1.47    0.00    0.00    0.00    0.00    0.00     0.00    0.00    0.00    0.00
  141    0.00    0.00    0.50    0.00    0.00    0.00   38.64    2.06    5.23    0.51    0.00    0.00    0.00    0.00    0.00     0.00    0.00    0.00    0.00
  142    0.00    0.00    0.17    0.00    0.00    0.00   37.12    1.52    4.56    0.18    0.00    0.00    0.00    0.00    0.00     0.00    0.00    0.00    0.00
  143    5.60    0.14    1.35    0.00    0.00    0.00   38.03    2.59    4.28    1.49    0.00    0.00    0.00    0.00    0.00     0.00    0.00    0.00    0.00
  144    4.60    0.09    1.53    0.00    0.00    0.00   38.13    2.79    4.57    1.62    0.00    0.00    0.00    0.00    0.00     0.00    0.00    0.00    0.00
  145    0.00    0.00    0.52    0.00    0.00    0.00   36.11    2.02    5.39    0.53    0.00    0.00    0.00    0.00    0.00     0.00    0.00    0.00    0.00
  146    6.10    0.04    1.63    0.00    0.00    0.00   37.07    2.89    4.89    1.68    0.00    0.00    0.00    0.00    0.00     0.00    0.00    0.00    0.00
  147    1.30    0.00    0.64    0.00    0.00    0.00   35.88    2.37    4.25    0.64    0.00    0.00    0.00    0.00    0.00     0.00    0.00    0.00    0.00
  148    4.10    0.00    1.13    0.00    0.00    0.00   36.06    2.53    4.57    1.14    0.00    0.00    0.00    0.00    0.00     0.00    0.00    0.00    0.00
  149    0.80    0.00    0.39    0.00    0.00    0.00   34.59    2.27    5.16    0.39    0.00    0.00    0.00    0.00    0.00     0.00    0.00    0.00    0.00
  150   13.50    0.09    3.93    0.00    0.00    0.00   39.04    3.17    4.15    4.02    0.02    0.00    0.00    0.00    0.00     0.00    0.00    0.00    0.00
  151    0.80    0.00    1.35    0.00    0.00    0.00   37.67    2.18    3.19    1.36    0.00    0.00    0.00    0.00    0.00     0.00    0.00    0.00    0.00
    5  134.70    7.12   71.30    0.04    0.23    0.00   37.67   77.90  133.61   78.66    0.08    0.00    0.07    0.00    0.08     0.00    0.00    0.00    0.00
  152    1.80    0.00    0.68    0.00    0.00    0.00   36.74    2.40    3.46    0.69    0.00    0.00    0.00    0.00    0.00     0.00    0.00    0.00    0.00
  153    1.80    0.00    0.46    0.00    0.00    0.00   35.92    2.27    3.39    0.46    0.00    0.00    0.00    0.00    0.00     0.00    0.00    0.00    0.00
  154    0.00    0.00    0.16    0.00    0.00    0.00   34.32    1.60    4.38    0.16    0.00    0.00    0.00    0.00    0.00     0.00    0.00    0.00    0.00
  155    9.40    0.02    2.49    0.00    0.00    0.00   37.15    2.84    4.00    2.51    0.00    0.00    0.00    0.00    0.00     0.00    0.00    0.00    0.00
  156  174.20   99.91   39.10    0.00    0.04    0.00   50.57    2.57    2.78  138.77    1.37    0.01    0.10    0.00    0.00     0.39    0.01    0.05    0.00
  157    0.30    0.00   13.43    0.00    0.00    0.00   49.36    1.50    2.45   13.65    0.00    0.00    0.03    0.00    0.00     0.00    0.00    0.00    0.00
  158    1.80    0.01    4.85    0.00    0.00    0.00   49.16    1.64    1.81    4.88    0.00    0.00    0.01    0.00    0.00     0.00    0.00    0.00    0.00
  159    0.30    0.00    1.67    0.00    0.00    0.00   47.74    1.72    2.80    1.67    0.00    0.00    0.00    0.00    0.00     0.00    0.00    0.00    0.00
  160   11.70    0.52    4.46    0.00    0.01    0.00   50.41    2.58    2.79    4.97    0.01    0.00    0.01    0.00    0.00     0.00    0.00    0.00    0.00
  161    5.30    0.15    3.12    0.00    0.00    0.00   50.57    2.56    2.75    3.28    0.00    0.00    0.00    0.00    0.00     0.00    0.00    0.00    0.00
  162    0.30    0.00    1.07    0.00    0.00    0.00   49.46    1.41    2.27    1.08    0.00    0.00    0.00    0.00    0.00     0.00    0.00    0.00    0.00
  163    0.80    0.00    0.37    0.00    0.00    0.00   48.18    2.08    2.73    0.37    0.00    0.00    0.00    0.00    0.00     0.00    0.00    0.00    0.00
  164   10.70    0.43    3.63    0.00    0.01    0.00   50.60    2.51    2.66    4.06    0.01    0.00    0.00    0.00    0.00     0.00    0.00    0.00    0.00
  165    0.80    0.00    1.25    0.00    0.00    0.00   48.83    2.56    3.64    1.26    0.00    0.00    0.00    0.00    0.00     0.00    0.00    0.00    0.00
  166    1.80    0.00    0.64    0.00    0.00    0.00   47.93    2.37    3.20    0.65    0.00    0.00    0.00    0.00    0.00     0.00    0.00    0.00    0.00
  167   30.50    3.90   12.79    0.00    0.02    0.00   52.86    2.50    2.69   16.66    0.08    0.00    0.03    0.00    0.00     0.01    0.00    0.00    0.00
  168    0.80    0.00    4.39    0.00    0.00    0.00   51.11    2.55    3.56    4.43    0.00    0.00    0.01    0.00    0.00     0.00    0.00    0.00    0.00
  169    1.50    0.00    1.63    0.00    0.00    0.00   50.33    2.09    2.57    1.64    0.00    0.00    0.00    0.00    0.00     0.00    0.00    0.00    0.00
  170    0.50    0.00    0.56    0.00    0.00    0.00   49.53    1.29    2.34    0.57    0.00    0.00    0.00    0.00    0.00     0.00    0.00    0.00    0.00
  171    0.30    0.00    0.19    0.00    0.00    0.00   48.53    1.30    2.57    0.20    0.00    0.00    0.00    0.00    0.00     0.00    0.00    0.00    0.00
  172    0.00    0.00    0.07    0.00    0.00    0.00   47.10    1.44    3.73    0.07    0.00    0.00    0.00    0.00    0.00     0.00    0.00    0.00    0.00
  173    4.10    0.00    0.88    0.00    0.00    0.00   47.34    2.55    4.48    0.88    0.00    0.00    0.00    0.00    0.00     0.00    0.00    0.00    0.00
  174    6.10    0.02    1.82    0.00    0.00    0.00   48.47    2.66    3.95    1.84    0.00    0.00    0.00    0.00    0.00     0.00    0.00    0.00    0.00
  175    8.90    0.19    3.07    0.00    0.00    0.00   50.91    2.54    2.79    3.26    0.00    0.00    0.00    0.00    0.00     0.00    0.00    0.00    0.00
  176   17.30    1.00    8.45    0.00    0.01    0.00   53.98    1.96    2.08    9.44    0.02    0.00    0.02    0.00    0.00     0.00    0.00    0.00    0.00
  177    0.00    0.00    2.90    0.00    0.00    0.00   52.47    1.50    2.57    2.92    0.00    0.00    0.01    0.00    0.00     0.00    0.00    0.00    0.00
  178    0.00    0.00    1.00    0.00    0.00    0.00   51.73    0.74    1.46    1.00    0.00    0.00    0.00    0.00    0.00     0.00    0.00    0.00    0.00
  179    3.00    0.02    0.87    0.00    0.00    0.00   51.25    2.65    3.51    0.90    0.00    0.00    0.00    0.00    0.00     0.00    0.00    0.00    0.00
  180    0.30    0.00    0.30    0.00    0.00    0.00   50.00    1.55    2.96    0.30    0.00    0.00    0.00    0.00    0.00     0.00    0.00    0.00    0.00
  181    4.80    0.04    1.22    0.00    0.00    0.00   51.12    1.95    2.17    1.26    0.00    0.00    0.00    0.00    0.00     0.00    0.00    0.00    0.00
    6  299.10  106.22  117.49    0.05    0.13    0.00   51.12   61.88   88.53  223.83    1.50    0.01    0.25    0.00    0.00     0.40    0.01    0.05    0.00
  182    2.30    0.00    0.80    0.00    0.00    0.00   50.11    2.72    3.82    0.81    0.00    0.00    0.00    0.00    0.00     0.00    0.00    0.00    0.00
  183   14.00    0.56    5.28    0.00    0.01    0.00   52.96    2.95    3.44    5.83    0.01    0.00    0.01    0.00    0.00     0.00    0.00    0.00    0.00
  184    6.90    0.22    4.10    0.00    0.01    0.00   52.35    3.80    4.89    4.33    0.00    0.00    0.01    0.00    0.00     0.00    0.00    0.00    0.00
  185    0.00    0.00    1.41    0.00    0.00    0.00   50.25    2.11    4.31    1.42    0.00    0.00    0.00    0.00    0.00     0.00    0.00    0.00    0.00
  186    7.60    0.13    2.38    0.00    0.00    0.00   51.84    2.98    3.70    2.52    0.00    0.00    0.00    0.00    0.00     0.00    0.00    0.00    0.00
  187    1.50    0.00    0.96    0.00    0.00    0.00   50.36    2.77    3.88    0.96    0.00    0.00    0.00    0.00    0.00     0.00    0.00    0.00    0.00
  188    5.10    0.04    1.54    0.00    0.00    0.00   52.48    1.08    1.16    1.59    0.00    0.00    0.00    0.00    0.00     0.00    0.00    0.00    0.00
  189    0.30    0.00    0.53    0.00    0.00    0.00   51.39    1.39    1.85    0.53    0.00    0.00    0.00    0.00    0.00     0.00    0.00    0.00    0.00
  190    0.00    0.00    0.18    0.00    0.00    0.00   50.17    1.22    2.26    0.19    0.00    0.00    0.00    0.00    0.00     0.00    0.00    0.00    0.00
  191    2.80    0.00    0.59    0.00    0.00    0.00   50.12    2.04    2.40    0.60    0.00    0.00    0.00    0.00    0.00     0.00    0.00    0.00    0.00
  192    0.30    0.00    0.20    0.00    0.00    0.00   49.31    1.11    2.26    0.21    0.00    0.00    0.00    0.00    0.00     0.00    0.00    0.00    0.00
  193   14.70    0.44    5.17    0.00    0.01    0.00   53.75    2.04    2.14    5.61    0.01    0.00    0.01    0.00    0.00     0.00    0.00    0.00    0.00
  194   24.40    2.67   12.90    0.00    0.02    0.00   56.96    1.55    1.63   15.55    0.04    0.00    0.04    0.00    0.00     0.00    0.00    0.00    0.00
  195    2.00    0.02    4.80    0.00    0.00    0.00   56.50    1.88    1.98    4.85    0.00    0.00    0.01    0.00    0.00     0.00    0.00    0.00    0.00
  196    9.40    0.45    5.60    0.00    0.01    0.00   56.85    2.56    2.72    6.06    0.01    0.00    0.01    0.00    0.00     0.00    0.00    0.00    0.00
  197    5.10    0.17    3.43    0.00    0.01    0.00   56.52    2.97    3.42    3.61    0.00    0.00    0.01    0.00    0.00     0.00    0.00    0.00    0.00
  198   31.80    5.61   14.57    0.00    0.02    0.00   58.84    3.44    4.22   20.15    0.05    0.00    0.04    0.00    0.00     0.01    0.00    0.00    0.00
  199   10.40    0.54    8.94    0.00    0.01    0.00   59.70    3.00    3.47    9.50    0.00    0.00    0.02    0.00    0.00     0.00    0.00    0.00    0.00
  200   33.50    6.79   16.75    0.00    0.03    0.00   62.27    3.27    3.91   23.52    0.15    0.00    0.03    0.00    0.00     0.04    0.00    0.00    0.00
  201   27.40    4.48   17.18    0.00    0.02    0.00   65.26    2.49    2.61   21.67    0.00    0.00    0.03    0.00    0.00     0.02    0.00    0.00    0.00
  202    0.00    0.00    5.90    0.00    0.00    0.00   64.35    0.91    1.58    5.94    0.00    0.00    0.01    0.00    0.00     0.00    0.00    0.00    0.00
  203    0.00    0.00    2.03    0.00    0.00    0.00   63.13    1.22    2.30    2.04    0.00    0.00    0.00    0.00    0.00     0.00    0.00    0.00    0.00
  204    0.00    0.00    0.70    0.00    0.00    0.00   61.67    1.45    3.31    0.70    0.00    0.00    0.00    0.00    0.00     0.00    0.00    0.00    0.00
  205   13.70    0.77    4.87    0.00    0.01    0.00   63.68    3.86    4.87    5.63    0.01    0.00    0.00    0.00    0.00     0.00    0.00    0.00    0.00
  206    0.00    0.00    1.67    0.00    0.00    0.00   60.94    2.74    5.71    1.69    0.00    0.00    0.00    0.00    0.00     0.00    0.00    0.00    0.00
  207    0.00    0.00    0.57    0.00    0.00    0.00   59.22    1.72    4.86    0.58    0.00    0.00    0.00    0.00    0.00     0.00    0.00    0.00    0.00
  208   23.40    2.32    8.32    0.00    0.01    0.00   64.17    3.74    4.67   10.63    0.03    0.00    0.01    0.00    0.00     0.01    0.00    0.00    0.00
  209    4.10    0.08    3.77    0.00    0.00    0.00   63.54    3.26    4.17    3.87    0.00    0.00    0.00    0.00    0.00     0.00    0.00    0.00    0.00
  210    4.80    0.10    2.42    0.00    0.00    0.00   63.33    3.20    4.01    2.53    0.00    0.00    0.00    0.00    0.00     0.00    0.00    0.00    0.00
  211    0.50    0.00    0.83    0.00    0.00    0.00   61.49    2.33    3.87    0.84    0.00    0.00    0.00    0.00    0.00     0.00    0.00    0.00    0.00
  212    2.80    0.01    0.78    0.00    0.00    0.00   61.01    2.52    3.58    0.79    0.00    0.00    0.00    0.00    0.00     0.00    0.00    0.00    0.00
    7  248.80   25.40  139.20    0.07    0.20    0.00   61.01   74.33  103.02  164.73    0.31    0.00    0.26    0.00    0.02     0.08    0.00    0.01    0.00
  213    9.70    0.24    3.02    0.00    0.01    0.00   63.66    2.61    2.80    3.27    0.01    0.00    0.00    0.00    0.00     0.00    0.00    0.00    0.00
  214    0.30    0.00    1.04    0.00    0.00    0.00   62.30    1.66    2.72    1.05    0.00    0.00    0.00    0.00    0.00     0.00    0.00    0.00    0.00
  215   21.10    2.10    8.81    0.00    0.02    0.00   66.48    1.93    2.01   10.89    0.06    0.00    0.01    0.00    0.00     0.01    0.00    0.00    0.00
  216   14.00    0.87    9.37    0.00    0.02    0.00   66.68    3.25    3.81   10.25    0.00    0.00    0.02    0.00    0.00     0.00    0.00    0.00    0.00
  217   16.50    1.34   10.22    0.00    0.02    0.00   68.01    3.15    3.65   11.56    0.02    0.00    0.02    0.00    0.00     0.00    0.00    0.00    0.00
  218    4.80    0.14    4.69    0.00    0.00    0.00   67.57    3.31    3.91    4.85    0.00    0.00    0.01    0.00    0.00     0.00    0.00    0.00    0.00
  219    0.00    0.00    1.61    0.00    0.00    0.00   64.75    2.82    5.47    1.62    0.00    0.00    0.00    0.00    0.00     0.00    0.00    0.00    0.00
  220    0.50    0.00    0.55    0.00    0.00    0.00   62.52    2.72    6.27    0.56    0.00    0.00    0.00    0.00    0.00     0.00    0.00    0.00    0.00
  221    7.10    0.10    1.96    0.00    0.00    0.00   63.49    3.34    5.25    2.06    0.00    0.00    0.00    0.00    0.00     0.00    0.00    0.00    0.00
  222   74.70   34.18   20.49    0.00    0.08    0.00   71.10    2.64    2.79   54.58    0.44    0.00    0.03    0.00    0.00     0.31    0.00    0.04    0.00
  223    0.00    0.00    7.04    0.00    0.00    0.00   68.95    2.14    3.76    7.13    0.00    0.00    0.01    0.00    0.00     0.00    0.00    0.00    0.00
  224    0.30    0.00    2.42    0.00    0.00    0.00   67.75    1.50    2.91    2.43    0.00    0.00    0.00    0.00    0.00     0.00    0.00    0.00    0.00
  225    0.00    0.00    0.83    0.00    0.00    0.00   66.27    1.48    3.71    0.84    0.00    0.00    0.00    0.00    0.00     0.00    0.00    0.00    0.00
  226    0.00    0.00    0.29    0.00    0.00    0.00   64.70    1.57    4.66    0.29    0.00    0.00    0.00    0.00    0.00     0.00    0.00    0.00    0.00
  227   30.00    5.21   10.03    0.00    0.04    0.00   70.20    4.12    5.21   15.23    0.11    0.00    0.01    0.00    0.00     0.05    0.00    0.01    0.00
  228  103.10   60.73   25.76    0.00    0.25    0.00   75.16    3.16    3.60   86.38    1.49    0.00    0.04    0.00    0.00     1.31    0.00    0.16    0.00
  229   88.60   50.34   29.24    0.00    0.25    0.00   80.51    1.61    1.67   79.59    0.00    0.00    0.03    0.00    0.00     0.42    0.00    0.05    0.00
  230    8.10    0.39   13.55    0.00    0.05    0.00   81.10    1.73    1.79   14.06    0.01    0.00    0.02    0.00    0.00     0.00    0.00    0.00    0.00
  231   37.60   12.48   18.09    0.00    0.19    0.00   83.86    1.70    1.76   30.56    0.10    0.00    0.02    0.00    0.00     0.07    0.00    0.01    0.00
  232    0.50    0.00    6.22    0.00    0.00    0.00   83.23    1.13    1.42    6.27    0.00    0.00    0.01    0.00    0.00     0.00    0.00    0.00    0.00
  233   13.00    1.07    7.79    0.00    0.07    0.00   83.91    2.56    2.64    8.86    0.03    0.00    0.01    0.00    0.00     0.00    0.00    0.00    0.00
  234    0.00    0.00    2.68    0.00    0.00    0.00   80.78    3.13    5.41    2.70    0.00    0.00    0.00    0.00    0.00     0.00    0.00    0.00    0.00
  235    0.00    0.00    0.92    0.00    0.00    0.00   78.95    1.83    4.36    0.93    0.00    0.00    0.00    0.00    0.00     0.00    0.00    0.00    0.00
  236    1.30    0.00    0.32    0.00    0.00    0.00   77.97    2.26    3.47    0.33    0.00    0.00    0.00    0.00    0.00     0.00    0.00    0.00    0.00
  237    0.80    0.00    0.11    0.00    0.00    0.00   76.75    2.02    3.63    0.12    0.00    0.00    0.00    0.00    0.00     0.00    0.00    0.00    0.00
  238   30.20    7.38    9.08    0.00    0.04    0.00   82.73    3.04    3.33   16.43    0.11    0.00    0.01    0.00    0.00     0.06    0.00    0.01    0.00
  239    0.50    0.00    3.12    0.00    0.00    0.00   80.66    2.56    3.82    3.16    0.00    0.00    0.00    0.00    0.00     0.00    0.00    0.00    0.00
  240    0.00    0.00    1.07    0.00    0.00    0.00   78.79    1.87    4.00    1.08    0.00    0.00    0.00    0.00    0.00     0.00    0.00    0.00    0.00
  241    0.00    0.00    0.37    0.00    0.00    0.00   77.31    1.48    3.93    0.37    0.00    0.00    0.00    0.00    0.00     0.00    0.00    0.00    0.00
  242    0.00    0.00    0.13    0.00    0.00    0.00   75.57    1.73    5.28    0.13    0.00    0.00    0.00    0.00    0.00     0.00    0.00    0.00    0.00
  243    5.10    0.00    1.18    0.00    0.00    0.00   76.65    2.28    3.58    1.19    0.00    0.00    0.00    0.00    0.00     0.00    0.00    0.00    0.00
    8  467.80  176.58  202.00    0.11    1.05    0.00   76.65   72.33  112.62  378.73    2.39    0.01    0.25    0.01    0.00     2.23    0.01    0.27    0.00
  244   44.70   15.83   12.95    0.00    0.08    0.00   83.45    2.89    3.08   28.74    0.29    0.00    0.01    0.00    0.00     0.22    0.00    0.03    0.00
  245    2.80    0.04    4.98    0.00    0.00    0.00   82.89    2.51    2.65    5.06    0.00    0.00    0.00    0.00    0.00     0.00    0.00    0.00    0.00
  246    1.30    0.00    1.79    0.00    0.00    0.00   82.39    1.68    1.74    1.80    0.00    0.00    0.00    0.00    0.00     0.00    0.00    0.00    0.00
  247    0.00    0.00    0.61    0.00    0.00    0.00   80.39    2.00    3.45    0.62    0.00    0.00    0.00    0.00    0.00     0.00    0.00    0.00    0.00
  248    0.00    0.00    0.21    0.00    0.00    0.00   78.49    1.90    4.25    0.22    0.00    0.00    0.00    0.00    0.00     0.00    0.00    0.00    0.00
  249    0.00    0.00    0.07    0.00    0.00    0.00   76.82    1.67    4.63    0.08    0.00    0.00    0.00    0.00    0.00     0.00    0.00    0.00    0.00
  250   25.10    4.46    7.66    0.00    0.02    0.00   81.44    4.37    5.44   12.11    0.07    0.00    0.01    0.00    0.00     0.05    0.00    0.01    0.00
  251   12.70    0.85    7.34    0.00    0.04    0.00   83.03    3.04    3.31    8.21    0.00    0.00    0.01    0.00    0.00     0.00    0.00    0.00    0.00
  252    7.40    0.28    5.09    0.00    0.02    0.00   83.32    2.91    3.11    5.38    0.00    0.00    0.01    0.00    0.00     0.00    0.00    0.00    0.00
  253    3.60    0.07    2.51    0.00    0.00    0.00   81.95    3.72    4.51    2.59    0.00    0.00    0.00    0.00    0.00     0.00    0.00    0.00    0.00
  254    0.30    0.00    0.86    0.00    0.00    0.00   78.89    3.37    6.16    0.87    0.00    0.00    0.00    0.00    0.00     0.00    0.00    0.00    0.00
  255    1.30    0.00    0.33    0.00    0.00    0.00   76.59    3.55    6.83    0.34    0.00    0.00    0.00    0.00    0.00     0.00    0.00    0.00    0.00
  256    8.40    0.04    2.31    0.00    0.00    0.00   77.75    3.84    5.95    2.36    0.00    0.00    0.00    0.00    0.00     0.00    0.00    0.00    0.00
  257    0.30    0.00    0.79    0.00    0.00    0.00   75.76    2.30    5.12    0.80    0.00    0.00    0.00    0.00    0.00     0.00    0.00    0.00    0.00
  258    2.30    0.00    0.61    0.00    0.00    0.00   74.93    2.62    4.99    0.61    0.00    0.00    0.00    0.00    0.00     0.00    0.00    0.00    0.00
  259    3.30    0.00    0.88    0.00    0.00    0.00   74.42    2.77    5.39    0.89    0.00    0.00    0.00    0.00    0.00     0.00    0.00    0.00    0.00
  260    5.60    0.01    1.67    0.00    0.00    0.00   75.57    2.38    3.56    1.68    0.00    0.00    0.00    0.00    0.00     0.00    0.00    0.00    0.00
  261   16.50    1.28    5.77    0.00    0.01    0.00   78.89    3.97    4.89    7.05    0.03    0.00    0.00    0.00    0.00     0.01    0.00    0.00    0.00
  262    0.30    0.00    1.98    0.00    0.00    0.00   76.69    2.49    4.39    2.00    0.00    0.00    0.00    0.00    0.00     0.00    0.00    0.00    0.00
  263    0.30    0.00    0.68    0.00    0.00    0.00   74.28    2.71    6.42    0.69    0.00    0.00    0.00    0.00    0.00     0.00    0.00    0.00    0.00
  264   14.70    0.46    4.48    0.00    0.01    0.00   78.43    3.62    4.35    4.94    0.03    0.00    0.00    0.00    0.00     0.01    0.00    0.00    0.00
  265    1.50    0.00    1.68    0.00    0.00    0.00   76.50    3.21    4.54    1.69    0.00    0.00    0.00    0.00    0.00     0.00    0.00    0.00    0.00
  266    0.30    0.00    0.58    0.00    0.00    0.00   73.63    3.17    6.91    0.58    0.00    0.00    0.00    0.00    0.00     0.00    0.00    0.00    0.00
  267    0.00    0.00    0.20    0.00    0.00    0.00   71.51    2.12    6.87    0.20    0.00    0.00    0.00    0.00    0.00     0.00    0.00    0.00    0.00
  268    0.50    0.00    0.07    0.00    0.00    0.00   69.89    2.13    7.18    0.07    0.00    0.00    0.00    0.00    0.00     0.00    0.00    0.00    0.00
  269    0.00    0.00    0.02    0.00    0.00    0.00   68.26    1.63    7.49    0.03    0.00    0.00    0.00    0.00    0.00     0.00    0.00    0.00    0.00
  270    0.00    0.00    0.01    0.00    0.00    0.00   66.75    1.51    8.04    0.01    0.00    0.00    0.00    0.00    0.00     0.00    0.00    0.00    0.00
  271   10.90    0.03    2.87    0.00    0.00    0.00   70.21    3.04    5.92    2.91    0.01    0.00    0.00    0.00    0.00     0.00    0.00    0.00    0.00
  272    0.30    0.00    0.98    0.00    0.00    0.00   68.85    1.66    4.02    0.99    0.00    0.00    0.00    0.00    0.00     0.00    0.00    0.00    0.00
  273    2.30    0.00    0.67    0.00    0.00    0.00   68.25    2.40    5.20    0.68    0.00    0.00    0.00    0.00    0.00     0.00    0.00    0.00    0.00
    9  166.70   23.37   70.66    0.14    0.19    0.00   68.25   81.16  150.39   94.21    0.45    0.00    0.06    0.00    0.00     0.30    0.00    0.04    0.00
  274    0.00    0.00    0.23    0.00    0.00    0.00   66.92    1.32    5.18    0.24    0.00    0.00    0.00    0.00    0.00     0.00    0.00    0.00    0.00
  275    7.10    0.01    1.83    0.00    0.00    0.00   69.12    2.23    3.74    1.84    0.00    0.00    0.00    0.00    0.00     0.00    0.00    0.00    0.00
  276    0.50    0.00    0.63    0.00    0.00    0.00   67.75    1.86    4.51    0.63    0.00    0.00    0.00    0.00    0.00     0.00    0.00    0.00    0.00
  277    0.00    0.00    0.22    0.00    0.00    0.00   66.24    1.51    5.98    0.22    0.00    0.00    0.00    0.00    0.00     0.00    0.00    0.00    0.00
  278    0.50    0.00    0.07    0.00    0.00    0.00   65.17    1.57    5.73    0.08    0.00    0.00    0.00    0.00    0.00     0.00    0.00    0.00    0.00
  279    1.50    0.00    0.12    0.00    0.00    0.00   64.77    1.76    3.84    0.12    0.00    0.00    0.00    0.00    0.00     0.00    0.00    0.00    0.00
  280    2.50    0.00    0.48    0.00    0.00    0.00   64.65    1.95    4.35    0.48    0.00    0.00    0.00    0.00    0.00     0.00    0.00    0.00    0.00
  281    0.30    0.00    0.16    0.00    0.00    0.00   63.99    0.97    3.21    0.17    0.00    0.00    0.00    0.00    0.00     0.00    0.00    0.00    0.00
  282    0.50    0.00    0.06    0.00    0.00    0.00   63.19    1.30    4.46    0.06    0.00    0.00    0.00    0.00    0.00     0.00    0.00    0.00    0.00
  283   72.40   28.96   15.71    0.00    0.03    0.00   79.05    3.65    4.38   44.65    0.59    0.01    0.02    0.00    0.00     0.62    0.00    0.08    0.00
  284    9.90    0.57    8.77    0.00    0.02    0.00   79.44    3.79    4.57    9.35    0.00    0.00    0.01    0.00    0.00     0.00    0.00    0.00    0.00
  285    0.30    0.00    3.01    0.00    0.01    0.00   77.20    2.53    4.35    3.03    0.00    0.00    0.00    0.00    0.00     0.00    0.00    0.00    0.00
  286    6.10    0.28    2.50    0.00    0.01    0.00   77.25    3.53    4.77    2.78    0.00    0.00    0.00    0.00    0.00     0.00    0.00    0.00    0.00
  287    0.30    0.00    0.86    0.00    0.01    0.00   74.66    2.88    6.00    0.87    0.00    0.00    0.00    0.00    0.00     0.00    0.00    0.00    0.00
  288   43.70   14.92   13.29    0.00    0.03    0.00   79.51    4.10    5.04   28.16    0.22    0.00    0.03    0.00    0.00     0.22    0.00    0.03    0.00
  289    0.00    0.00    4.56    0.00    0.01    0.00   76.87    2.64    5.45    4.62    0.00    0.00    0.01    0.00    0.00     0.00    0.00    0.00    0.00
  290    2.30    0.05    1.88    0.00    0.01    0.00   75.50    3.13    5.41    1.94    0.00    0.00    0.00    0.00    0.00     0.00    0.00    0.00    0.00
  291    2.00    0.03    0.93    0.00    0.01    0.00   73.60    3.42    6.87    0.97    0.00    0.00    0.00    0.00    0.00     0.00    0.00    0.00    0.00
  292   27.40    5.63    8.77    0.00    0.02    0.00   78.37    4.10    5.03   14.38    0.14    0.00    0.01    0.00    0.00     0.12    0.00    0.02    0.00
  293    6.10    0.28    4.56    0.00    0.01    0.00   77.57    4.26    5.31    4.87    0.00    0.00    0.00    0.00    0.00     0.00    0.00    0.00    0.00
  294    0.00    0.00    1.57    0.00    0.01    0.00   74.93    2.63    5.59    1.58    0.00    0.00    0.00    0.00    0.00     0.00    0.00    0.00    0.00
  295    0.00    0.00    0.54    0.00    0.01    0.00   72.97    1.95    5.41    0.54    0.00    0.00    0.00    0.00    0.00     0.00    0.00    0.00    0.00
  296    0.00    0.00    0.19    0.00    0.00    0.00   70.75    2.22    7.16    0.19    0.00    0.00    0.00    0.00    0.00     0.00    0.00    0.00    0.00
  297    1.00    0.00    0.06    0.00    0.00    0.00   69.30    2.44    6.12    0.07    0.00    0.00    0.00    0.00    0.00     0.00    0.00    0.00    0.00
  298    0.00    0.00    0.02    0.00    0.00    0.00   67.61    1.69    6.24    0.03    0.00    0.00    0.00    0.00    0.00     0.00    0.00    0.00    0.00
  299    0.00    0.00    0.01    0.00    0.00    0.00   66.16    1.45    6.22    0.01    0.00    0.00    0.00    0.00    0.00     0.00    0.00    0.00    0.00
  300    0.00    0.00    0.00    0.00    0.00    0.00   64.45    1.71    7.96    0.01    0.00    0.00    0.00    0.00    0.00     0.00    0.00    0.00    0.00
  301    0.00    0.00    0.00    0.00    0.00    0.00   63.21    1.24    6.86    0.00    0.00    0.00    0.00    0.00    0.00     0.00    0.00    0.00    0.00
  302    0.30    0.00    0.00    0.00    0.00    0.00   62.51    1.00    4.85    0.00    0.00    0.00    0.00    0.00    0.00     0.00    0.00    0.00    0.00
  303   12.70    0.05    3.41    0.00    0.00    0.00   67.42    2.53    4.76    3.47    0.01    0.00    0.00    0.00    0.00     0.00    0.00    0.00    0.00
  304   37.10    9.74   11.84    0.00    0.02    0.00   74.95    3.56    4.22   21.54    0.51    0.00    0.01    0.00    0.00     0.44    0.00    0.05    0.00
   10  234.50   60.51   86.29    0.10    0.22    0.00   74.95   74.93  163.58  146.89    1.48    0.01    0.12    0.00    0.00     1.41    0.00    0.17    0.00
  305    1.30    0.00    4.15    0.00    0.00    0.00   72.43    3.70    5.51    4.19    0.00    0.00    0.00    0.00    0.00     0.00    0.00    0.00    0.00
  306    3.60    0.03    2.19    0.00    0.00    0.00   72.66    2.17    2.62    2.23    0.00    0.00    0.00    0.00    0.00     0.00    0.00    0.00    0.00
  307    0.00    0.00    0.75    0.00    0.00    0.00   69.95    2.71    6.10    0.76    0.00    0.00    0.00    0.00    0.00     0.00    0.00    0.00    0.00
  308    0.00    0.00    0.26    0.00    0.00    0.00   67.65    2.30    7.62    0.26    0.00    0.00    0.00    0.00    0.00     0.00    0.00    0.00    0.00
  309    0.00    0.00    0.09    0.00    0.00    0.00   65.90    1.74    7.33    0.09    0.00    0.00    0.00    0.00    0.00     0.00    0.00    0.00    0.00
  310    0.00    0.00    0.03    0.00    0.00    0.00   64.42    1.49    7.25    0.03    0.00    0.00    0.00    0.00    0.00     0.00    0.00    0.00    0.00
  311    0.00    0.00    0.01    0.00    0.00    0.00   63.12    1.30    7.05    0.01    0.00    0.00    0.00    0.00    0.00     0.00    0.00    0.00    0.00
  312    3.00    0.00    0.51    0.00    0.00    0.00   62.99    2.35    6.63    0.52    0.00    0.00    0.00    0.00    0.00     0.00    0.00    0.00    0.00
  313    5.30    0.00    1.45    0.00    0.00    0.00   64.02    2.33    5.37    1.46    0.00    0.00    0.00    0.00    0.00     0.00    0.00    0.00    0.00
  314    3.60    0.00    1.26    0.00    0.00    0.00   64.63    1.83    3.14    1.27    0.00    0.00    0.00    0.00    0.00     0.00    0.00    0.00    0.00
  315    3.00    0.00    1.02    0.00    0.00    0.00   64.59    2.14    4.07    1.03    0.00    0.00    0.00    0.00    0.00     0.00    0.00    0.00    0.00
  316    1.30    0.00    0.43    0.00    0.00    0.00   63.80    1.97    3.88    0.43    0.00    0.00    0.00    0.00    0.00     0.00    0.00    0.00    0.00
  317   38.40    9.18   11.04    0.00    0.02    0.00   72.77    3.64    4.37   20.19    0.30    0.00    0.01    0.00    0.00     0.29    0.00    0.04    0.00
  318    0.00    0.00    3.79    0.00    0.00    0.00   70.91    1.85    3.45    3.82    0.00    0.00    0.00    0.00    0.00     0.00    0.00    0.00    0.00
  319    0.00    0.00    1.30    0.00    0.00    0.00   70.26    0.65    1.43    1.31    0.00    0.00    0.00    0.00    0.00     0.00    0.00    0.00    0.00
  320    0.00    0.00    0.45    0.00    0.00    0.00   68.22    2.04    5.47    0.45    0.00    0.00    0.00    0.00    0.00     0.00    0.00    0.00    0.00
  321    0.00    0.00    0.15    0.00    0.00    0.00   67.01    1.21    3.82    0.16    0.00    0.00    0.00    0.00    0.00     0.00    0.00    0.00    0.00
  322    9.40    0.23    2.47    0.00    0.00    0.00   68.93    3.56    5.34    2.71    0.00    0.00    0.00    0.00    0.00     0.00    0.00    0.00    0.00
  323    4.80    0.06    1.98    0.00    0.00    0.00   67.85    4.11    6.50    2.04    0.00    0.00    0.00    0.00    0.00     0.00    0.00    0.00    0.00
  324    8.60    0.14    2.95    0.00    0.00    0.00   70.18    2.67    3.01    3.09    0.00    0.00    0.00    0.00    0.00     0.00    0.00    0.00    0.00
  325    2.30    0.01    1.39    0.00    0.00    0.00   68.46    3.43    4.73    1.40    0.00    0.00    0.00    0.00    0.00     0.00    0.00    0.00    0.00
  326    3.30    0.01    1.15    0.00    0.00    0.00   67.90    2.82    3.88    1.17    0.00    0.00    0.00    0.00    0.00     0.00    0.00    0.00    0.00
  327    0.30    0.00    0.40    0.00    0.00    0.00   66.07    2.13    4.40    0.40    0.00    0.00    0.00    0.00    0.00     0.00    0.00    0.00    0.00
  328   48.30   15.06   14.27    0.00    0.03    0.00   74.05    3.71    4.43   29.30    0.60    0.00    0.03    0.00    0.00     0.60    0.00    0.07    0.00
  329    0.00    0.00    4.90    0.00    0.00    0.00   71.39    2.65    5.11    4.94    0.00    0.00    0.01    0.00    0.00     0.00    0.00    0.00    0.00
  330    0.00    0.00    1.68    0.00    0.00    0.00   68.94    2.45    6.46    1.69    0.00    0.00    0.00    0.00    0.00     0.00    0.00    0.00    0.00
  331    5.30    0.16    1.78    0.00    0.00    0.00   68.82    3.43    6.02    1.94    0.00    0.00    0.00    0.00    0.00     0.00    0.00    0.00    0.00
  332    6.10    0.19    2.13    0.00    0.00    0.00   69.15    3.28    5.12    2.31    0.00    0.00    0.00    0.00    0.00     0.00    0.00    0.00    0.00
  333    0.50    0.00    0.73    0.00    0.00    0.00   66.85    2.79    6.09    0.74    0.00    0.00    0.00    0.00    0.00     0.00    0.00    0.00    0.00
  334   32.50    7.04   10.49    0.00    0.02    0.00   73.39    3.31    3.78   17.50    0.40    0.00    0.02    0.00    0.00     0.35    0.00    0.04    0.00
   11  180.90   32.12   75.21    0.07    0.10    0.00   73.39   75.74  149.96  107.44    1.30    0.00    0.10    0.00    0.00     1.24    0.00    0.15    0.00
  335   10.90    0.53    7.86    0.00    0.01    0.00   73.35    3.92    4.76    8.41    0.00    0.00    0.02    0.00    0.00     0.00    0.00    0.00    0.00
  336    0.30    0.00    2.70    0.00    0.00    0.00   72.35    1.30    2.20    2.71    0.00    0.00    0.01    0.00    0.00     0.00    0.00    0.00    0.00
  337    5.80    0.15    2.36    0.00    0.00    0.00   71.74    4.08    5.42    2.51    0.00    0.00    0.00    0.00    0.00     0.00    0.00    0.00    0.00
  338    2.30    0.01    1.19    0.00    0.00    0.00   70.13    3.33    5.02    1.20    0.00    0.00    0.00    0.00    0.00     0.00    0.00    0.00    0.00
  339    4.30    0.02    1.38    0.00    0.00    0.00   69.76    3.16    4.69    1.41    0.00    0.00    0.00    0.00    0.00     0.00    0.00    0.00    0.00
  340   22.60    2.89    8.47    0.00    0.02    0.00   73.25    4.02    4.92   11.35    0.27    0.00    0.02    0.00    0.00     0.20    0.00    0.02    0.00
  341   14.50    1.02    8.62    0.00    0.01    0.00   74.81    3.20    3.60    9.65    0.00    0.00    0.02    0.00    0.00     0.02    0.00    0.00    0.00
  342    0.50    0.00    2.96    0.00    0.00    0.00   72.41    2.90    4.58    2.98    0.00    0.00    0.01    0.00    0.00     0.00    0.00    0.00    0.00
  343   50.50   19.24   16.16    0.00    0.03    0.00   77.19    3.39    3.87   35.34    1.84    0.00    0.04    0.00    0.00     1.50    0.00    0.19    0.00
  344   21.60    3.42   14.27    0.00    0.10    0.00   78.63    3.36    3.81   17.73    0.00    0.00    0.03    0.00    0.00     0.12    0.00    0.01    0.00
  345   41.10   14.32   18.59    0.00    0.17    0.00   82.08    2.30    2.33   32.89    2.00    0.00    0.04    0.00    0.00     1.41    0.00    0.17    0.00
  346    1.30    0.00    6.47    0.00    0.00    0.00   80.30    2.95    3.53    6.52    0.00    0.00    0.01    0.00    0.00     0.00    0.00    0.00    0.00
  347   17.50    2.15    9.05    0.00    0.07    0.00   82.04    3.14    3.44   11.19    0.11    0.00    0.02    0.00    0.00     0.08    0.00    0.01    0.00
  348    8.40    0.38    6.16    0.00    0.03    0.00   81.39    4.00    4.78    6.55    0.00    0.00    0.01    0.00    0.00     0.00    0.00    0.00    0.00
  349    1.50    0.00    2.25    0.00    0.00    0.00   79.23    3.44    4.93    2.27    0.00    0.00    0.00    0.00    0.00     0.00    0.00    0.00    0.00
  350    1.00    0.00    0.77    0.00    0.00    0.00   76.70    3.53    6.39    0.78    0.00    0.00    0.00    0.00    0.00     0.00    0.00    0.00    0.00
  351    6.60    0.13    1.93    0.00    0.00    0.00   76.07    4.57    7.73    2.05    0.00    0.00    0.00    0.00    0.00     0.00    0.00    0.00    0.00
  352    3.30    0.00    1.34    0.00    0.00    0.00   74.53    3.81    7.43    1.34    0.00    0.00    0.00    0.00    0.00     0.00    0.00    0.00    0.00
  353    0.00    0.00    0.46    0.00    0.00    0.00   72.27    2.26    7.48    0.46    0.00    0.00    0.00    0.00    0.00     0.00    0.00    0.00    0.00
  354    6.40    0.01    1.70    0.00    0.00    0.00   73.04    3.28    6.55    1.71    0.00    0.00    0.00    0.00    0.00     0.00    0.00    0.00    0.00
  355    6.60    0.03    2.25    0.00    0.00    0.00   74.09    2.99    4.79    2.27    0.00    0.00    0.00    0.00    0.00     0.00    0.00    0.00    0.00
  356    0.00    0.00    0.77    0.00    0.00    0.00   72.19    1.90    5.03    0.78    0.00    0.00    0.00    0.00    0.00     0.00    0.00    0.00    0.00
  357    3.30    0.00    0.88    0.00    0.00    0.00   72.41    2.15    3.55    0.88    0.00    0.00    0.00    0.00    0.00     0.00    0.00    0.00    0.00
  358   16.30    0.91    5.19    0.00    0.01    0.00   76.78    3.57    4.26    6.10    0.02    0.00    0.00    0.00    0.00     0.02    0.00    0.00    0.00
  359    3.30    0.04    2.46    0.00    0.00    0.00   76.11    2.89    3.52    2.51    0.00    0.00    0.00    0.00    0.00     0.00    0.00    0.00    0.00
  360    2.00    0.01    1.13    0.00    0.00    0.00   75.03    2.64    3.42    1.14    0.00    0.00    0.00    0.00    0.00     0.00    0.00    0.00    0.00
  361    1.00    0.00    0.39    0.00    0.00    0.00   73.21    2.82    4.38    0.39    0.00    0.00    0.00    0.00    0.00     0.00    0.00    0.00    0.00
  362    0.00    0.00    0.13    0.00    0.00    0.00   71.15    2.06    5.33    0.14    0.00    0.00    0.00    0.00    0.00     0.00    0.00    0.00    0.00
  363    7.10    0.01    1.79    0.00    0.00    0.00   72.07    3.51    5.82    1.81    0.00    0.00    0.00    0.00    0.00     0.00    0.00    0.00    0.00
  364    1.00    0.00    0.62    0.00    0.00    0.00   70.87    2.20    3.69    0.62    0.00    0.00    0.00    0.00    0.00     0.00    0.00    0.00    0.00
  365   48.80   16.57   13.26    0.00    0.03    0.00   79.32    3.88    4.62   29.80    2.27    0.00    0.02    0.00    0.00     1.64    0.00    0.20    0.00
   12  309.80   61.84  143.56    0.08    0.49    0.00   79.32   96.54  145.84  205.50    6.52    0.00    0.24    0.01    0.00     4.99    0.00    0.62    0.00

 2013 3096.30  776.13 1392.41    2.61   12.91    0.00   79.32  907.99 1499.49 2171.97   35.06    0.06    2.11    0.72    8.75    42.73    0.06    5.23    0.00
1
    SWAT Dec 23 2016    VER 2016/Rev 664                                            

    General Input/Output section (file.cio):                                        
    2/12/2020 14:36:12 QSWAT Workflow v1.5.2                                        
                                                                                    
Annual Summary for Watershed in year    5 of simulation

UNIT                                    PERCO    TILE                           WATER     SED     NO3     NO3     NO3     NO3        N       P       P
TIME     PREC    SURQ    LATQ     GWQ    LATE       Q     SW       ET     PET   YIELD   YIELD    SURQ    LATQ    PERC    CROP  ORGANIC SOLUBLE ORGANIC TILENO3
         (mm)    (mm)    (mm)    (mm)    (mm)    (mm)    (mm)    (mm)    (mm)    (mm)   (t/ha)  ------------------(kg nutrient/ha)-------------------- (kg/ha)
    1   88.40   51.69   23.74    0.00    0.16    0.00   84.45    2.19    2.21   75.35    5.40    0.00    0.05    0.00    0.00    12.83    0.00    1.57    0.00
    2   60.50   29.97   24.64    0.00    0.23    0.00   87.16    2.47    2.49   54.65    0.00    0.00    0.05    0.01    0.00     6.04    0.00    0.74    0.00
    3   51.10   23.27   24.10    0.00    0.67    0.00   86.94    3.56    4.03   47.39    3.09    0.00    0.05    0.02    0.00     3.97    0.00    0.49    0.00
    4   32.50   10.18   20.08    0.00    0.64    0.00   86.87    3.76    4.34   30.30    0.00    0.00    0.04    0.02    0.00     0.80    0.00    0.10    0.00
    5    3.60    0.11    7.67    0.00    0.00    0.00   85.88    3.31    4.01    7.82    0.00    0.00    0.01    0.00    0.00     0.00    0.00    0.00    0.00
    6   38.60   13.98   15.31    0.00    0.59    0.00   88.20    2.40    2.42   29.25    1.53    0.00    0.03    0.02    0.00     1.88    0.00    0.23    0.00
    7   32.30   10.24   17.46    0.00    0.77    0.00   88.26    2.64    2.66   27.71    0.00    0.00    0.03    0.02    0.00     1.26    0.00    0.15    0.00
    8   29.50    8.55   17.41    0.00    0.68    0.00   88.26    2.90    2.99   25.96    0.70    0.00    0.03    0.02    0.00     0.86    0.00    0.11    0.00
    9   29.20    8.37   17.22    0.00    0.65    0.00   88.56    2.76    2.79   25.59    0.08    0.00    0.03    0.02    0.00     0.91    0.00    0.11    0.00
   10    2.50    0.05    6.35    0.00    0.01    0.00   87.14    3.19    3.70    6.45    0.00    0.00    0.01    0.00    0.00     0.00    0.00    0.00    0.00
   11    1.30    0.01    2.26    0.00    0.00    0.00   85.38    2.93    3.85    2.28    0.00    0.00    0.00    0.00    0.00     0.00    0.00    0.00    0.00
   12    0.50    0.00    0.78    0.00    0.00    0.00   83.44    2.44    4.20    0.78    0.00    0.00    0.00    0.00    0.00     0.00    0.00    0.00    0.00
   13    0.50    0.00    0.27    0.00    0.00    0.00   81.63    2.30    4.87    0.27    0.00    0.00    0.00    0.00    0.00     0.00    0.00    0.00    0.00
   14    7.10    0.27    1.86    0.00    0.00    0.00   81.95    3.81    6.05    2.14    0.00    0.00    0.00    0.00    0.00     0.00    0.00    0.00    0.00
   15    0.00    0.00    0.64    0.01    0.00    0.00   79.36    2.59    6.64    0.65    0.00    0.00    0.00    0.00    0.00     0.00    0.00    0.00    0.00
   16   45.50   17.31   11.84    0.01    0.04    0.00   85.37    4.43    5.37   29.10    3.14    0.00    0.01    0.00    0.00     3.15    0.00    0.39    0.00
   17    0.50    0.00    4.07    0.01    0.00    0.00   83.23    2.64    4.28    4.12    0.00    0.00    0.00    0.00    0.00     0.00    0.00    0.00    0.00
   18    0.00    0.00    1.40    0.01    0.00    0.00   81.22    2.01    4.81    1.41    0.00    0.00    0.00    0.00    0.00     0.00    0.00    0.00    0.00
   19    2.80    0.00    0.94    0.01    0.00    0.00   80.31    3.01    5.15    0.95    0.00    0.00    0.00    0.00    0.00     0.00    0.00    0.00    0.00
   20    8.10    0.03    2.43    0.01    0.00    0.00   81.61    3.57    5.20    2.46    0.00    0.00    0.00    0.00    0.00     0.00    0.00    0.00    0.00
   21    1.00    0.00    0.83    0.01    0.00    0.00   79.49    3.12    5.50    0.84    0.00    0.00    0.00    0.00    0.00     0.00    0.00    0.00    0.00
   22    5.30    0.00    1.56    0.01    0.00    0.00   79.13    3.72    6.58    1.57    0.00    0.00    0.00    0.00    0.00     0.00    0.00    0.00    0.00
   23    1.30    0.00    0.61    0.01    0.00    0.00   77.03    3.28    7.09    0.62    0.00    0.00    0.00    0.00    0.00     0.00    0.00    0.00    0.00
   24   11.20    0.10    3.22    0.01    0.00    0.00   79.53    4.01    5.79    3.33    0.01    0.00    0.00    0.00    0.00     0.01    0.00    0.00    0.00
   25   44.40   16.55   13.43    0.01    0.03    0.00   85.38    3.21    3.49   29.93    1.41    0.00    0.01    0.00    0.00     1.61    0.00    0.20    0.00
   26   33.80   10.74   16.32    0.01    0.22    0.00   87.06    3.32    3.64   27.07    0.27    0.00    0.02    0.01    0.00     1.58    0.00    0.19    0.00
   27    5.60    0.19    7.13    0.01    0.00    0.00   85.49    4.67    5.73    7.36    0.00    0.00    0.01    0.00    0.00     0.00    0.00    0.00    0.00
   28    0.50    0.00    2.45    0.01    0.00    0.00   82.93    3.05    5.31    2.46    0.00    0.00    0.00    0.00    0.00     0.00    0.00    0.00    0.00
   29    0.80    0.00    0.84    0.01    0.00    0.00   80.84    2.89    5.71    0.85    0.00    0.00    0.00    0.00    0.00     0.00    0.00    0.00    0.00
   30    4.80    0.02    1.39    0.01    0.00    0.00   80.42    3.52    6.09    1.42    0.00    0.00    0.00    0.00    0.00     0.00    0.00    0.00    0.00
   31    6.40    0.03    2.08    0.01    0.00    0.00   80.71    3.65    5.79    2.11    0.00    0.00    0.00    0.00    0.00     0.00    0.00    0.00    0.00
    1  549.60  201.66  250.33    0.15    4.73    0.00   80.71   97.34  142.80  452.22   15.63    0.01    0.41    0.13    0.00    34.89    0.02    4.28    0.00
   32    1.00    0.00    0.71    0.01    0.00    0.00   78.84    2.87    5.40    0.72    0.00    0.00    0.00    0.00    0.00     0.00    0.00    0.00    0.00
   33    3.00    0.00    0.83    0.01    0.00    0.00   77.63    3.32    7.01    0.84    0.00    0.00    0.00    0.00    0.00     0.00    0.00    0.00    0.00
   34    0.50    0.00    0.29    0.01    0.00    0.00   75.88    2.25    6.30    0.29    0.00    0.00    0.00    0.00    0.00     0.00    0.00    0.00    0.00
   35    0.00    0.00    0.10    0.01    0.00    0.00   74.30    1.58    6.38    0.11    0.00    0.00    0.00    0.00    0.00     0.00    0.00    0.00    0.00
   36    0.00    0.00    0.03    0.01    0.00    0.00   72.97    1.33    6.33    0.04    0.00    0.00    0.00    0.00    0.00     0.00    0.00    0.00    0.00
   37    0.00    0.00    0.01    0.01    0.00    0.00   72.11    0.86    4.47    0.02    0.00    0.00    0.00    0.00    0.00     0.00    0.00    0.00    0.00
   38    0.00    0.00    0.00    0.01    0.00    0.00   70.70    1.41    5.43    0.01    0.00    0.00    0.00    0.00    0.02     0.00    0.00    0.00    0.00
   39   25.10    2.90    6.22    0.01    0.01    0.00   78.30    5.13    6.63    9.12    0.54    0.00    0.00    0.00    0.35     0.50    0.00    0.06    0.00
   40   26.40    5.72   10.52    0.01    0.02    0.00   81.30    4.88    5.90   16.22    0.00    0.00    0.00    0.00    0.40     0.47    0.00    0.06    0.00
   41    0.00    0.00    3.62    0.01    0.00    0.00   78.07    3.23    6.18    3.65    0.00    0.00    0.00    0.00    0.44     0.00    0.00    0.00    0.00
   42    0.00    0.00    1.24    0.01    0.00    0.00   75.32    2.74    6.18    1.25    0.00    0.00    0.00    0.00    0.47     0.00    0.00    0.00    0.00
   43    3.00    0.02    0.94    0.01    0.00    0.00   73.68    3.84    6.51    0.97    0.00    0.00    0.00    0.00    0.56     0.00    0.00    0.00    0.00
   44    2.00    0.00    0.60    0.01    0.00    0.00   71.55    3.72    5.89    0.60    0.00    0.00    0.00    0.00    0.62     0.00    0.00    0.00    0.00
   45   25.90    4.01    6.99    0.01    0.01    0.00   78.60    4.49    4.66   10.99    0.14    0.00    0.00    0.00    0.65     0.12    0.00    0.01    0.00
   46   17.30    2.01    8.41    0.01    0.01    0.00   80.66    4.07    4.10   10.42    0.00    0.00    0.00    0.00    0.53     0.01    0.00    0.00    0.00
   47    2.30    0.02    3.24    0.01    0.00    0.00   77.04    5.35    6.39    3.29    0.00    0.00    0.00    0.00    0.45     0.00    0.00    0.00    0.00
   48    4.10    0.07    2.00    0.01    0.00    0.00   76.59    3.13    3.33    2.08    0.00    0.00    0.00    0.00    0.44     0.00    0.00    0.00    0.00
   49   13.50    0.91    4.64    0.01    0.01    0.00   79.41    3.74    3.75    5.55    0.01    0.00    0.00    0.00    0.44     0.00    0.00    0.00    0.00
   50    2.00    0.01    1.89    0.01    0.00    0.00   76.57    4.37    4.69    1.92    0.00    0.00    0.00    0.00    0.30     0.00    0.00    0.00    0.00
   51   30.00    7.22    9.95    0.00    0.02    0.00   81.12    4.05    4.06   17.14    0.05    0.00    0.00    0.00    0.40     0.02    0.00    0.00    0.00
   52   51.60   22.26   18.13    0.01    0.10    0.00   83.87    4.08    4.09   40.36    0.08    0.00    0.01    0.00    0.27     0.06    0.00    0.01    0.00
   53    0.30    0.00    6.23    0.01    0.00    0.00   81.07    3.10    3.68    6.30    0.00    0.00    0.00    0.00    0.25     0.00    0.00    0.00    0.00
   54    0.80    0.00    2.14    0.01    0.00    0.00   78.09    3.78    4.65    2.15    0.00    0.00    0.00    0.00    0.13     0.00    0.00    0.00    0.00
   55   30.70    7.68    9.42    0.01    0.04    0.00   83.01    4.82    4.86   17.08    0.08    0.00    0.00    0.00    0.10     0.02    0.00    0.00    0.00
   56   30.50    8.39   13.53    0.01    0.12    0.00   84.44    4.88    5.04   21.92    0.04    0.00    0.00    0.00    0.12     0.03    0.00    0.00    0.00
   57   45.50   18.52   18.23    0.01    0.49    0.00   86.89    3.36    3.36   36.73    0.20    0.00    0.00    0.00    0.11     0.06    0.00    0.01    0.00
   58   35.80   12.28   18.80    0.01    0.74    0.00   85.83    4.74    4.86   31.10    0.00    0.00    0.00    0.00    0.01     0.02    0.00    0.00    0.00
   59    0.30    0.00    6.46    0.01    0.00    0.00   83.03    3.10    4.04    6.51    0.00    0.00    0.00    0.00    0.02     0.00    0.00    0.00    0.00
    2  351.60   92.02  155.17    0.15    1.60    0.00   83.03   98.20  144.17  247.38    1.14    0.00    0.03    0.00    7.08     1.30    0.00    0.16    0.00
   60    5.10    0.12    3.41    0.01    0.00    0.00   81.31    4.89    5.69    3.54    0.00    0.00    0.00    0.00    0.02     0.00    0.00    0.00    0.00
   61    6.60    0.17    2.80    0.01    0.00    0.00   81.08    4.17    4.70    2.98    0.00    0.00    0.00    0.00    0.02     0.00    0.00    0.00    0.00
   62    8.60    0.30    3.19    0.01    0.00    0.00   80.62    5.36    5.88    3.49    0.00    0.00    0.00    0.00    0.01     0.00    0.00    0.00    0.00
   63    3.60    0.03    1.83    0.01    0.00    0.00   78.68    4.39    4.95    1.87    0.00    0.00    0.00    0.00    0.08     0.00    0.00    0.00    0.00
   64    0.00    0.00    0.63    0.01    0.00    0.00   75.04    3.65    5.49    0.64    0.00    0.00    0.00    0.00    0.05     0.00    0.00    0.00    0.00
   65   47.20   15.03   11.22    0.01    0.03    0.00   85.62    4.79    4.80   26.25    0.15    0.00    0.00    0.00    0.09     0.02    0.00    0.00    0.00
   66    1.00    0.00    3.86    0.01    0.01    0.00   83.52    3.10    3.38    3.87    0.00    0.00    0.00    0.00    0.04     0.00    0.00    0.00    0.00
   67    7.60    0.39    3.32    0.01    0.01    0.00   82.89    4.79    5.03    3.71    0.00    0.00    0.00    0.00    0.02     0.00    0.00    0.00    0.00
   68    4.30    0.16    2.09    0.01    0.01    0.00   80.67    4.92    5.40    2.26    0.00    0.00    0.00    0.00    0.02     0.00    0.00    0.00    0.00
   69    2.00    0.03    0.97    0.01    0.01    0.00   78.30    3.94    4.36    1.02    0.00    0.00    0.00    0.00    0.08     0.00    0.00    0.00    0.00
   70    0.00    0.00    0.33    0.01    0.01    0.00   74.96    3.33    4.92    0.35    0.00    0.00    0.00    0.00    0.04     0.00    0.00    0.00    0.00
   71    0.50    0.00    0.11    0.01    0.01    0.00   72.29    3.17    4.55    0.13    0.00    0.00    0.00    0.00    0.05     0.00    0.00    0.00    0.00
   72   52.30   20.51   11.39    0.01    0.02    0.00   82.22    4.54    4.55   31.84    0.18    0.00    0.00    0.00    0.06     0.02    0.00    0.00    0.00
   73   30.00    8.07   13.66    0.01    0.06    0.00   84.89    4.35    4.36   21.76    0.00    0.00    0.00    0.00    0.06     0.01    0.00    0.00    0.00
   74    3.00    0.07    5.25    0.01    0.00    0.00   82.83    4.13    4.40    5.37    0.00    0.00    0.00    0.00    0.04     0.00    0.00    0.00    0.00
   75    1.00    0.00    1.80    0.01    0.00    0.00   78.26    5.57    7.33    1.82    0.00    0.00    0.00    0.00    0.02     0.00    0.00    0.00    0.00
   76    6.40    0.22    2.19    0.01    0.00    0.00   76.22    5.83    7.65    2.42    0.00    0.00    0.00    0.00    0.05     0.00    0.00    0.00    0.00
   77    0.30    0.00    0.75    0.01    0.00    0.00   72.75    3.77    6.13    0.77    0.00    0.00    0.00    0.00    0.04     0.00    0.00    0.00    0.00
   78    0.30    0.00    0.26    0.01    0.00    0.00   69.73    3.32    5.24    0.27    0.00    0.00    0.00    0.00    0.03     0.00    0.00    0.00    0.00
   79    4.80    0.00    1.18    0.01    0.00    0.00   68.47    4.40    5.40    1.19    0.00    0.00    0.00    0.00    0.03     0.00    0.00    0.00    0.00
   80    0.00    0.00    0.40    0.01    0.00    0.00   65.05    3.42    5.73    0.42    0.00    0.00    0.00    0.00    0.03     0.00    0.00    0.00    0.00
   81    0.00    0.00    0.14    0.01    0.00    0.00   61.90    3.14    5.73    0.15    0.00    0.00    0.00    0.00    0.03     0.00    0.00    0.00    0.00
   82   10.20    0.03    2.70    0.01    0.00    0.00   63.18    4.85    6.16    2.74    0.01    0.00    0.00    0.00    0.03     0.00    0.00    0.00    0.00
   83   19.10    1.47    6.05    0.01    0.00    0.00   68.09    4.90    5.81    7.52    0.03    0.00    0.00    0.00    0.03     0.00    0.00    0.00    0.00
   84    0.00    0.00    2.08    0.01    0.00    0.00   64.54    3.55    5.35    2.10    0.00    0.00    0.00    0.00    0.03     0.00    0.00    0.00    0.00
   85    0.00    0.00    0.71    0.00    0.00    0.00   60.70    3.84    6.27    0.72    0.00    0.00    0.00    0.00    0.03     0.00    0.00    0.00    0.00
   86    0.00    0.00    0.25    0.00    0.00    0.00   57.07    3.64    6.91    0.25    0.00    0.00    0.00    0.00    0.03     0.00    0.00    0.00    0.00
   87    8.60    0.01    2.26    0.00    0.00    0.00   57.86    4.47    5.23    2.29    0.00    0.00    0.00    0.00    0.03     0.00    0.00    0.00    0.00
   88    0.30    0.00    0.78    0.00    0.00    0.00   55.34    2.82    4.30    0.78    0.00    0.00    0.00    0.00    0.03     0.00    0.00    0.00    0.00
   89    0.00    0.00    0.27    0.00    0.00    0.00   51.97    3.37    5.68    0.27    0.00    0.00    0.00    0.00    0.03     0.00    0.00    0.00    0.00
   90    0.00    0.00    0.09    0.00    0.00    0.00   48.73    3.23    5.83    0.10    0.00    0.00    0.00    0.00    0.03     0.00    0.00    0.00    0.00
    3  222.80   46.62   85.99    0.24    0.19    0.00   48.73  127.63  167.21  132.91    0.38    0.00    0.01    0.00    1.18     0.06    0.00    0.01    0.00
   91   43.70    7.11   11.55    0.00    0.02    0.00   65.32    2.45    2.45   18.66    0.07    0.00    0.00    0.00    0.03     0.00    0.00    0.00    0.00
[...]
  355   87.60   52.05   20.24    0.00    0.38    0.00   87.10    2.43    2.46   72.18    5.92    0.00    0.04    0.01    0.00     4.30    0.00    0.53    0.00
  356   55.90   27.08   23.27    0.00    1.05    0.00   87.12    2.90    3.02   50.39    0.00    0.00    0.05    0.01    0.00     1.43    0.00    0.18    0.00
  357    0.00    0.00    7.99    0.00    0.00    0.00   83.95    3.16    5.45    8.08    0.00    0.00    0.02    0.00    0.00     0.00    0.00    0.00    0.00
  358    0.00    0.00    2.75    0.00    0.00    0.00   81.04    2.91    7.05    2.76    0.00    0.00    0.01    0.00    0.00     0.00    0.00    0.00    0.00
  359    0.00    0.00    0.94    0.00    0.00    0.00   78.76    2.28    6.83    0.95    0.00    0.00    0.00    0.00    0.00     0.00    0.00    0.00    0.00
  360   23.90    3.98    6.92    0.00    0.01    0.00   85.21    3.41    3.83   10.90    0.27    0.00    0.00    0.00    0.00     0.17    0.00    0.02    0.00
  361    4.60    0.12    3.45    0.00    0.00    0.00   85.28    2.78    2.89    3.58    0.00    0.00    0.00    0.00    0.00     0.00    0.00    0.00    0.00
  362   14.70    1.49    7.12    0.00    0.04    0.00   85.95    3.46    3.89    8.61    0.05    0.00    0.01    0.00    0.00     0.03    0.00    0.00    0.00
  363    8.40    0.37    5.38    0.00    0.02    0.00   85.81    3.68    4.23    5.76    0.00    0.00    0.01    0.00    0.00     0.00    0.00    0.00    0.00
  364    0.30    0.00    1.85    0.00    0.00    0.00   82.80    3.31    5.71    1.86    0.00    0.00    0.00    0.00    0.00     0.00    0.00    0.00    0.00
  365    7.40    0.21    2.49    0.00    0.00    0.00   84.19    2.96    3.49    2.71    0.00    0.00    0.00    0.00    0.00     0.00    0.00    0.00    0.00
   12  450.40  154.29  187.17    0.10    2.01    0.00   84.19   97.85  147.41  341.59   10.19    0.01    0.28    0.03    0.00     9.52    0.01    1.17    0.00

 2014 3844.30 1232.86 1561.87    1.91   14.72    0.00   84.19 1035.61 1709.36 2797.30   35.58    0.06    1.82    0.19    8.80    51.00    0.07    6.27    0.00
  366   39.90   14.49   13.56    0.00    0.39    0.00   88.06    1.79    1.81   28.01    0.65    0.00    0.02    0.01    0.00     0.48    0.00    0.06    0.00
    1   39.90   14.49   13.56    0.00    0.39    0.00   88.06    1.79    1.81   28.01    0.65    0.00    0.02    0.01    0.00     0.48    0.00    0.06    0.00

 2014   39.90   14.49   13.56    0.00    0.39    0.00   88.06    1.79    1.81   28.01    0.65    0.00    0.02    0.01    0.00     0.48    0.00    0.06    0.00
1
    SWAT Dec 23 2016    VER 2016/Rev 664                                            

    General Input/Output section (file.cio):                                        
    2/12/2020 14:36:12 QSWAT Workflow v1.5.2                                        
                                                                                    
    FINAL VALUES

1
    SWAT Dec 23 2016    VER 2016/Rev 664                                            

    General Input/Output section (file.cio):                                        
    2/12/2020 14:36:12 QSWAT Workflow v1.5.2                                        
                                                                                    
                                            Average Plant Values (kg/ha)

  HRU       1 SUB   1 FRSE  Yld =  2612.0 BIOM =   3731.4
  HRU       2 SUB   1 FRSE  Yld =  2607.1 BIOM =   3724.4
  HRU       3 SUB   1 FRSE  Yld =  5164.1 BIOM =   7377.3
  HRU       4 SUB   2 FRSE  Yld =  5443.4 BIOM =   7776.2
  HRU       5 SUB   2 FRSE  Yld =    52.8 BIOM =     75.4
  HRU       6 SUB   2 FRSE  Yld =    52.8 BIOM =     75.4
  HRU       7 SUB   2 FRSE  Yld =    52.8 BIOM =     75.4
  HRU       8 SUB   3 SWCH  Yld = 23376.4 BIOM =  39176.7
  HRU       9 SUB   3 FRSE  Yld =  2610.3 BIOM =   3728.9
  HRU      10 SUB   3 FRSE  Yld =  2605.6 BIOM =   3722.3
  HRU      11 SUB   3 FRSE  Yld =  5436.5 BIOM =   7766.4
  HRU      12 SUB   3 BARR  Yld =     0.0 BIOM =      0.9
  HRU      13 SUB   3 FRSD  Yld =  3260.5 BIOM =   9568.8
  HRU      14 SUB   4 FRSD  Yld =    37.9 BIOM =    109.1
  HRU      15 SUB   4 FRSD  Yld =    37.9 BIOM =    109.1
  HRU      16 SUB   4 FRSD  Yld =    37.9 BIOM =    109.1
  HRU      17 SUB   4 FRSD  Yld =  3280.9 BIOM =   9605.3
  HRU      18 SUB   4 FRSD  Yld =    37.9 BIOM =    109.1
  HRU      19 SUB   4 FRSD  Yld =    37.9 BIOM =    109.1
  HRU      20 SUB   4 FRSD  Yld =    37.9 BIOM =    109.1
  HRU      21 SUB   4 SWCH  Yld = 20905.6 BIOM =  35334.9
  HRU      22 SUB   4 FRSE  Yld =  2612.1 BIOM =   3731.5
  HRU      23 SUB   4 FRSE  Yld =  2607.8 BIOM =   3725.4
  HRU      24 SUB   4 FRSE  Yld =  5440.3 BIOM =   7771.8
  HRU      25 SUB   4 FRSE  Yld =    52.8 BIOM =     75.4
  HRU      26 SUB   4 FRSE  Yld =    52.8 BIOM =     75.4
  HRU      27 SUB   4 FRSE  Yld =    52.8 BIOM =     75.4
  HRU      28 SUB   4 FRSD  Yld =  3274.0 BIOM =   9592.9
  HRU      29 SUB   4 BARR  Yld =     0.0 BIOM =      0.9
  HRU      30 SUB   4 BARR  Yld =     0.0 BIOM =      0.7
  HRU      31 SUB   5 FRSE  Yld =  5430.8 BIOM =   7758.4
  HRU      32 SUB   5 FRSE  Yld =    52.8 BIOM =     75.4
  HRU      33 SUB   5 FRSE  Yld =    52.8 BIOM =     75.4
  HRU      34 SUB   5 FRSE  Yld =    52.8 BIOM =     75.4
  HRU      35 SUB   5 FRSE  Yld =  5066.7 BIOM =   7238.2
  HRU      36 SUB   5 FRSE  Yld =    52.8 BIOM =     75.4
  HRU      37 SUB   5 FRSE  Yld =    52.8 BIOM =     75.4
  HRU      38 SUB   5 FRSE  Yld =    52.8 BIOM =     75.4
  HRU      39 SUB   5 FRSE  Yld =  3346.8 BIOM =   4781.2
  HRU      40 SUB   5 FRSE  Yld =    52.8 BIOM =     75.4
  HRU      41 SUB   5 FRSE  Yld =    52.8 BIOM =     75.4
  HRU      42 SUB   5 FRSE  Yld =    52.8 BIOM =     75.4

    HRU STATISTICS

                AVE ANNUAL VALUES

   HRU  SUB  SOIL       AREAkm2    CN     AWCmm   USLE_LS  IRRmm  AUTONkh AUTOPkh  MIXEF PRECmm SURQGENmm   GWQmm    ETmm   SEDth  NO3kgh  ORGNkgh BIOMth   YLDth  SURQmm
      1   1   FAGASA     .103E-03   70.00   97.20    0.07    0.00    0.00    0.00    0.20 3485.48  999.19 1309.53 1042.98    0.02    0.02    0.43    5.87    4.11  995.17
      2   1   FAGASA     .103E-03   70.00   97.20    0.38    0.00    0.00    0.00    0.20 3485.48  998.64 1311.94 1042.60    0.81    0.07   10.73    5.86    4.10  998.38
      3   1   FAGASA     .119E+00   70.00   97.20    6.29    0.00    0.00    0.00    0.20 3485.48  916.91 1551.09  976.38   17.55    2.12   46.29   11.51    8.05  916.91
      4   2   FAGASA     .939E-01   70.00   97.20   10.22    0.00    0.00    0.00    0.20 3485.48  862.54 1649.49  953.91   25.27    2.25   49.03   12.16    8.52  862.54
      5   2   URBAN LA   .667E-02   77.00    1.50    4.16    0.00    0.00    0.00    0.20 3485.48 2296.08    0.03 1170.65    0.00    0.02    0.00    0.11    0.08 2296.08
      6   2   URBAN LA   .400E-02   77.00    1.50    2.58    0.00    0.00    0.00    0.20 3485.48 2296.17    0.00 1170.71    0.00    0.02    0.00    0.11    0.08 2296.14
      7   2   URBAN LA   .215E-02   77.00    1.50    2.44    0.00    0.00    0.00    0.20 3485.48 2296.16    0.00 1170.71    0.00    0.02    0.00    0.11    0.08 2296.16
      8   3   FAGASA     .616E-03   72.00   97.20    3.37    0.00  135.64    0.00    0.20 3485.48  941.03 1448.74 1050.83    0.20   14.25    1.96   55.11   35.75  941.03
      9   3   FAGASA     .205E-03   70.00   97.20    0.10    0.00    0.00    0.00    0.20 3485.48  999.10 1309.90 1042.89    0.15    0.03    2.55    5.87    4.11  997.72
     10   3   FAGASA     .718E-03   70.00   97.20    0.28    0.00    0.00    0.00    0.20 3485.48  998.73 1311.52 1042.62    0.78    0.06   10.60    5.85    4.10  998.40
     11   3   FAGASA     .479E+00   70.00   97.20   13.54    0.00    0.00    0.00    0.20 3485.48  862.59 1650.46  953.84   40.68    2.25   52.86   12.15    8.51  862.59
     12   3   FAGASA     .349E-02   91.00   97.20   16.49    0.00    0.00    0.00    0.20 3485.48 1902.59  769.62  810.50  612.62    2.11   55.21    0.00    0.00 1902.59
     13   3   FAGASA     .141E+00   77.00   97.20   21.12    0.00    0.00    0.00    0.20 3485.48 1075.15 1439.33  963.18   14.66    1.77   50.43   14.71   10.29 1075.15
     14   4   URBAN LA   .103E-03   77.00    1.50    0.10    0.00    0.00    0.00    0.20 3485.48 2294.54    0.00 1172.42    0.00    0.02    0.00    0.16    0.11 2291.03
     15   4   URBAN LA   .205E-03   77.00    1.50    0.26    0.00    0.00    0.00    0.20 3485.48 2294.54    0.00 1172.42    0.00    0.02    0.00    0.16    0.11 2293.03
     16   4   URBAN LA   .108E-01   77.00    1.50    2.20    0.00    0.00    0.00    0.20 3485.48 2294.52    0.00 1172.40    0.00    0.02    0.00    0.16    0.11 2294.52
     17   4   FAGASA     .103E-03   77.00   97.20   10.91    0.00    0.00    0.00    0.20 3485.48 1075.23 1438.63  963.12    3.08    1.81   22.22   14.80   10.36 1075.23
     18   4   URBAN LA   .205E-03   77.00    1.50    0.11    0.00    0.00    0.00    0.20 3485.48 2294.54    0.00 1172.42    0.00    0.02    0.00    0.16    0.11 2291.39
     19   4   URBAN LA   .103E-03   77.00    1.50    0.21    0.00    0.00    0.00    0.20 3485.48 2294.54    0.00 1172.42    0.00    0.02    0.00    0.16    0.11 2292.81
     20   4   URBAN LA   .257E-02   77.00    1.50    2.05    0.00    0.00    0.00    0.20 3485.48 2294.53    0.00 1172.41    0.00    0.02    0.00    0.16    0.11 2294.53
     21   4   FAGASA     .144E-02   72.00   97.20   12.99    0.00  132.81    0.00    0.20 3485.48  714.37 1765.41  996.25    0.73   15.17    5.23   49.69   32.09  714.37
     22   4   FAGASA     .103E-03   70.00   97.20    0.07    0.00    0.00    0.00    0.20 3485.48  999.21 1309.48 1043.00    0.02    0.02    0.43    5.87    4.11  995.19
     23   4   FAGASA     .103E-03   70.00   97.20    0.35    0.00    0.00    0.00    0.20 3485.48  998.68 1311.72 1042.65    0.73    0.06    9.79    5.86    4.10  998.40
     24   4   FAGASA     .384E+00   70.00   97.20   11.66    0.00    0.00    0.00    0.20 3485.48  862.54 1650.06  953.90   34.13    2.25   51.62   12.16    8.51  862.54
     25   4   URBAN LA   .308E-03   77.00    1.50    0.12    0.00    0.00    0.00    0.20 3485.48 2296.19    0.00 1170.70    0.00    0.02    0.00    0.11    0.08 2293.32
     26   4   URBAN LA   .308E-03   77.00    1.50    0.33    0.00    0.00    0.00    0.20 3485.48 2296.19    0.00 1170.70    0.00    0.02    0.00    0.11    0.08 2295.45
     27   4   URBAN LA   .260E-01   77.00    1.50    5.01    0.00    0.00    0.00    0.20 3485.48 2296.08    0.03 1170.62    0.00    0.02    0.00    0.11    0.08 2296.08
     28   4   FAGASA     .226E-02   77.00   97.20   11.93    0.00    0.00    0.00    0.20 3485.48 1075.24 1438.67  963.14    5.01    1.80   29.51   14.77   10.34 1075.24
     29   4   FAGASA     .146E-01   91.00   97.20   12.80    0.00    0.00    0.00    0.20 3485.48 1902.39  769.79  810.54  564.17    2.11   55.21    0.00    0.00 1902.39
     30   4   URBAN LA   .123E-02   94.00    1.50    3.13    0.00    0.00    0.00    0.20 3485.48 2591.57    0.00  888.64    0.00    0.09    0.00    0.00    0.00 2591.57
     31   5   FAGASA     .114E+00   70.00   97.20    9.47    0.00    0.00    0.00    0.20 3485.48  863.88 1646.98  954.22   24.02    2.23   48.58   12.13    8.49  863.88
     32   5   URBAN LA   .103E-03   77.00    1.50    0.16    0.00    0.00    0.00    0.20 3485.48 2296.15    0.00 1170.75    0.00    0.02    0.00    0.11    0.08 2294.00
     33   5   URBAN LA   .770E-02   77.00    1.50    0.29    0.00    0.00    0.00    0.20 3485.48 2296.15    0.00 1170.75    0.00    0.02    0.00    0.11    0.08 2294.74
     34   5   URBAN LA   .214E-01   77.00    1.50    3.56    0.00    0.00    0.00    0.20 3485.48 2296.06    0.02 1170.68    0.00    0.02    0.00    0.11    0.08 2296.06
     35   5   FAGASA     .123E-02   77.00   97.20    3.54    0.00    0.00    0.00    0.20 3485.48 1263.26 1182.60  994.94    8.27    1.98   41.97   11.32    7.92 1263.26
     36   5   URBAN LA   .154E-02   77.00    1.50    0.14    0.00    0.00    0.00    0.20 3485.48 2296.15    0.00 1170.75    0.00    0.02    0.00    0.11    0.08 2293.70
     37   5   URBAN LA   .831E-02   77.00    1.50    0.27    0.00    0.00    0.00    0.20 3485.48 2296.15    0.00 1170.75    0.00    0.02    0.00    0.11    0.08 2294.68
     38   5   URBAN LA   .103E-01   77.00    1.50    2.34    0.00    0.00    0.00    0.20 3485.48 2296.15    0.00 1170.74    0.00    0.02    0.00    0.11    0.08 2296.11
     39   5   FAGASA     .205E-03   77.00   97.20    3.07    0.00    0.00    0.00    0.20 3485.48 1302.58 1074.96 1038.25    8.83    1.26   46.65    7.58    5.31 1302.58
     40   5   URBAN LA   .103E-03   77.00    1.50    0.15    0.00    0.00    0.00    0.20 3485.48 2296.15    0.00 1170.75    0.00    0.02    0.00    0.11    0.08 2293.86
     41   5   URBAN LA   .277E-02   77.00    1.50    0.28    0.00    0.00    0.00    0.20 3485.48 2296.15    0.00 1170.75    0.00    0.02    0.00    0.11    0.08 2295.31
     42   5   URBAN LA   .492E-02   77.00    1.50    2.41    0.00    0.00    0.00    0.20 3485.48 2296.15    0.00 1170.74    0.00    0.02    0.00    0.11    0.08 2296.11



                AVE MONTHLY BASIN VALUES
                   SNOW                      WATER               SED
  MON     RAIN     FALL   SURF Q    LAT Q    YIELD       ET    YIELD      PET
          (MM)     (MM)     (MM)     (MM)     (MM)     (MM)   (T/HA)     (MM)
    1   573.80     0.00   200.83   262.34   463.51    92.07    16.04   128.90
    2   248.15     0.00    71.18   117.88   189.68    81.98     2.46   125.49
    3   158.30     0.00    24.55    61.37    86.41   104.56     0.22   141.30
    4   352.75     0.00    64.67   157.02   221.78    87.05     0.77   122.56
    5   177.95     0.00    27.51    87.68   115.43    79.89     0.24   137.53
    6   251.80     0.00    71.72   103.94   175.85    73.04     0.87   113.39
    7   488.95     0.00   244.94   151.73   396.74    69.68     2.56   107.32
    8   292.00     0.00    91.82   135.03   227.31    73.00     1.24   123.67
    9   138.15     0.00    17.89    57.50    75.55    68.35     0.30   144.04
   10   162.50     0.00    36.30    61.56    97.96    62.52     0.92   170.08
   11   256.55     0.00    49.03   118.27   167.40    81.88     1.41   142.36
   12   380.10     0.00   108.06   165.37   273.55    97.19     8.35   146.63

     AVE ANNUAL BASIN STRESS DAYS
               WATER STRESS DAYS =     5.19
               TEMPERATURE STRESS DAYS =     0.14
               NITROGEN STRESS DAYS =     9.19
               PHOSPHORUS STRESS DAYS =     0.09
               AERATION STRESS DAYS =     0.01
1
    SWAT Dec 23 2016    VER 2016/Rev 664                                            

    General Input/Output section (file.cio):                                        
    2/12/2020 14:36:12 QSWAT Workflow v1.5.2                                        
                                                                                    
         AVE ANNUAL BASIN VALUES

              PRECIP =   3485.5 MM
              SNOW FALL =    0.00 MM
              SNOW MELT =     0.00 MM
              SUBLIMATION =     0.00 MM
              SURFACE RUNOFF Q =  1010.36 MM
              LATERAL SOIL Q = 1481.89 MM
              TILE Q =     0.00 MM
              GROUNDWATER (SHAL AQ) Q =     2.26 MM
              GROUNDWATER (DEEP AQ) Q =     0.74 MM
              REVAP (SHAL AQ => SOIL/PLANTS) =   32.06 MM
              DEEP AQ RECHARGE =     0.69 MM
              TOTAL AQ RECHARGE =   13.86 MM
              TOTAL WATER YLD =  2495.22 MM
              PERCOLATION OUT OF SOIL =   13.99 MM
              ET =    971.4 MM
              PET =   1603.1MM
              TRANSMISSION LOSSES =     0.00 MM
              SEPTIC INFLOW =       0.00 MM
              TOTAL SEDIMENT LOADING =     35.59 T/HA
              TILE FROM IMPOUNDED WATER =     0.000 (MM)
              EVAPORATION FROM IMPOUNDED WATER =     0.000 (MM)
              SEEPAGE INTO SOIL FROM IMPOUNDED WATER =    0.000 (MM)
              OVERFLOW FROM IMPOUNDED WATER =    0.000 (MM)
1
    SWAT Dec 23 2016    VER 2016/Rev 664                                            

    General Input/Output section (file.cio):                                        
    2/12/2020 14:36:12 QSWAT Workflow v1.5.2                                        
                                                                                    
              AVE ANNUAL BASIN VALUES


              NUTRIENTS
                   ORGANIC N =    47.040 (KG/HA)
                   ORGANIC P =     5.772 (KG/HA)
                   NO3 YIELD (SQ) =     0.058 (KG/HA)
                   NO3 YIELD (LAT) =    1.978 (KG/HA)
                   NO3 YIELD (TILE) =    0.000 (KG/HA)
                   SOLP YIELD (TILE) =    0.000(KG/HA)
                   SOLP YIELD (SURF INLET RISER) =    0.000 (KG/HA)
                   SOL P YIELD =    0.066 (KG/HA)
                   NO3 LEACHED =     0.456 (KG/HA)
                   P LEACHED =     0.005 (KG/HA)
                   N UPTAKE =     8.766 (KG/HA)
                   P UPTAKE =    1.729 (KG/HA)
                   NO3 YIELD (GWQ) =     0.000 (KG/HA)
                   ACTIVE TO SOLUTION P FLOW =         0.518 (KG/HA)
                   ACTIVE TO STABLE P FLOW =         0.882 (KG/HA)
                   N FERTILIZER APPLIED =     0.187 (KG/HA)
                   P FERTILIZER APPLIED =     0.000 (KG/HA)
                   N FIXATION =     0.000 (KG/HA)
                   DENITRIFICATION =     0.015 (KG/HA)
                   HUMUS MIN ON ACTIVE ORG N =    12.336 (KG/HA)
                   ACTIVE TO STABLE ORG N =    -6.384 (KG/HA)
                   HUMUS MIN ON ACTIVE ORG P =    2.111 (KG/HA)
                   MIN FROM FRESH ORG N =    1.848 (KG/HA)
                   MIN FROM FRESH ORG P =    0.358 (KG/HA)
                   NO3 IN RAINFALL =     0.000 (KG/HA)
                   INITIAL NO3 IN SOIL =      35.168 (KG/HA)
                   FINAL NO3 IN SOIL =         6.331 (KG/HA)
                   INITIAL ORG N IN SOIL =   10023.003 (KG/HA)
                   FINAL ORG N IN SOIL =      9513.113 (KG/HA)
                   INITIAL MIN P IN SOIL =    1612.242 (KG/HA)
                   FINAL MIN P IN SOIL =      1569.733 (KG/HA)
                   INITIAL ORG P IN SOIL =    1227.818 (KG/HA)
                   FINAL ORG P IN SOIL =    1162.365 (KG/HA)
                   NO3 IN FERT =     0.187 (KG/HA)
                   AMMONIA IN FERT =     0.000 (KG/HA)
                   ORG N IN FERT =     0.000 (KG/HA)
                   MINERAL P IN FERT =     0.000 (KG/HA)
                   ORG P IN FERT =     0.000 (KG/HA)
                   N REMOVED IN YIELD =     6.652 (KG/HA)
                   P REMOVED IN YIELD =     1.380 (KG/HA)
                   AMMONIA VOLATILIZATION =     0.000 (KG/HA)
                   AMMONIA NITRIFICATION =      0.000 (KG/HA)
                   NO3 EVAP-LAYER 2 TO 1 =    3.743

                   DIE-GRO P Q =           0.0 (No/M2)
                   DIE-GRO LP Q =           0.0 (No/M2)
                   DIE-GRO P SED =          0.0 (No/M2)
                   DIE-GRO LP SED =          0.0 (No/M2)
                   BACT P RUNOFF =          0.0 (No/M2)
                   BACT LP RUNOFF =          0.0 (No/M2)
                   BACT P SEDIMENT =          0.0 (No/M2)
                   BACT LP SEDIMENT =          0.0 (No/M2)
                   BACT P INCORP =          0.0 (No/M2)
                   BACT LP INCORP =          0.0 (No/M2)

                   NITRATE SEPTIC =         0.00 (kg/ha)
                   AMMONIA SEPTIC =         0.00 (kg/ha)
                   ORG N SEPTIC =         0.00 (kg/ha)
                   FRESH ORGN SEPTIC =         0.00 (kg/ha)
                   ORG P SEPTIC =         0.00 (kg/ha)
                   FRESH ORGP SEPTIC =         0.00 (kg/ha)
                   SOL P SEPTIC =         0.00 (kg/ha)
                   BOD SEPTIC =         0.00 (kg/ha)
