1
    SWAT Dec 23 2016    VER 2016/Rev 664                                                                 0/ 0/   0      0: 0: 0

    General Input/Output section (file.cio):                                        
    2/12/2020 14:36:12 QSWAT Workflow v1.5.2                                        
                                                                                    


       SUB      GIS  MON   AREAkm2  PRECIPmm SNOMELTmm     PETmm      ETmm      SWmm    PERCmm    SURQmm    GW_Qmm    WYLDmm  SYLDt/ha ORGNkg/ha ORGPkg/haNSURQkg/ha SOLPkg/ha SEDPkg/ha LAT Q(mm)LATNO3kg/hGWNO3kg/haCHOLAmic/LCBODU mg/L DOXQ mg/L TNO3kg/ha   QTILEmm TVAPkg/ha
BIGSUB   1        0    1.11943E+00 0.269E+02 0.000E+00 0.233E+01 0.231E+01 0.919E+02 0.317E-01 0.433E+01 0.104E+00 0.147E+02 0.249E+00 0.646E+00 0.790E-01 0.367E-03 0.333E-03 0.629E-01 0.103E+02 0.125E-01 0.617E-05 .22397E-02 0.223E+02 0.871E+00 0.000E+00 0.000E+00 0.000E+00
BIGSUB   2        0    1.10671E+00 0.269E+02 0.000E+00 0.233E+01 0.231E+01 0.810E+02 0.331E-02 0.600E+01 0.000E+00 0.154E+02 0.329E+00 0.671E+00 0.820E-01 0.381E-03 0.690E-03 0.657E-01 0.935E+01 0.858E-02 0.100E-11 .21467E-02 0.255E+02 0.980E+00 0.000E+00 0.000E+00 0.000E+00
BIGSUB   3        0    1.62454E+00 0.269E+02 0.000E+00 0.233E+01 0.225E+01 0.899E+02 0.275E-01 0.501E+01 0.753E-02 0.153E+02 0.494E+00 0.769E+00 0.941E-01 0.107E-02 0.678E-03 0.758E-01 0.103E+02 0.122E-01 0.235E-05 .30730E-02 0.365E+02 0.881E+00 0.000E+00 0.000E+00 0.000E+00
BIGSUB   4        0    1.44478E+00 0.269E+02 0.000E+00 0.233E+01 0.231E+01 0.817E+02 0.110E-01 0.596E+01 0.221E-02 0.154E+02 0.606E+00 0.925E+00 0.113E+00 0.493E-03 0.622E-03 0.912E-01 0.944E+01 0.891E-02 0.736E-06 .60843E-02 0.556E+02 0.947E+00 0.000E+00 0.000E+00 0.000E+00
BIGSUB   5        0    1.17237E+00 0.269E+02 0.000E+00 0.233E+01 0.231E+01 0.644E+02 0.139E-01 0.902E+01 0.387E-02 0.161E+02 0.235E+00 0.497E+00 0.607E-01 0.321E-03 0.135E-02 0.487E-01 0.708E+01 0.654E-02 0.663E-06 .16380E-02 0.186E+02 0.111E+01 0.000E+00 0.000E+00 0.000E+00
BIGSUB   1        0    2.11943E+00 0.100E+01 0.000E+00 0.390E+01 0.307E+01 0.898E+02 0.320E-04 0.125E-02 0.106E+00 0.364E+01 0.197E-09 0.443E-05 0.543E-06 0.632E-07 0.329E-06 0.413E-06 0.352E+01 0.428E-02 0.613E-05 .36277E-09 0.000E+00 0.302E+00 0.000E+00 0.000E+00 0.000E+00
BIGSUB   2        0    2.10671E+00 0.100E+01 0.000E+00 0.390E+01 0.315E+01 0.788E+02 0.291E-02 0.132E-02 0.000E+00 0.322E+01 0.375E-09 0.100E-08 0.100E-08 0.912E-08 0.245E-06 0.200E-08 0.321E+01 0.295E-02 0.100E-11 .29689E-09 0.000E+00 0.267E+00 0.000E+00 0.000E+00 0.000E+00
BIGSUB   3        0    2.62454E+00 0.100E+01 0.000E+00 0.389E+01 0.301E+01 0.879E+02 0.177E-04 0.590E-03 0.749E-02 0.354E+01 0.918E-10 0.696E-05 0.852E-06 0.300E-07 0.147E-06 0.648E-06 0.353E+01 0.418E-02 0.231E-05 .68063E-09 0.000E+00 0.293E+00 0.000E+00 0.000E+00 0.000E+00
BIGSUB   4        0    2.44478E+00 0.100E+01 0.000E+00 0.390E+01 0.312E+01 0.796E+02 0.221E-02 0.639E-02 0.220E-02 0.325E+01 0.349E-09 0.117E-05 0.144E-06 0.120E-06 0.120E-05 0.110E-06 0.324E+01 0.306E-02 0.722E-06 .41608E-08 0.000E+00 0.270E+00 0.000E+00 0.000E+00 0.000E+00
BIGSUB   5        0    2.17237E+00 0.100E+01 0.000E+00 0.390E+01 0.333E+01 0.621E+02 0.802E-02 0.191E+00 0.385E-02 0.263E+01 0.658E-09 0.113E-08 0.101E-08 0.125E-05 0.352E-04 0.200E-08 0.243E+01 0.225E-02 0.647E-06 .49771E-07 0.000E+00 0.218E+00 0.000E+00 0.000E+00 0.000E+00
BIGSUB   1        0    3.11943E+00 0.155E+02 0.000E+00 0.471E+01 0.394E+01 0.915E+02 0.174E-01 0.696E+00 0.108E+00 0.806E+01 0.385E-01 0.100E+00 0.123E-01 0.119E-03 0.529E-04 0.977E-02 0.725E+01 0.101E-01 0.608E-05 .29843E-04 0.102E+01 0.605E+00 0.000E+00 0.000E+00 0.000E+00
BIGSUB   2        0    3.10671E+00 0.155E+02 0.000E+00 0.472E+01 0.401E+01 0.800E+02 0.343E-02 0.176E+01 0.000E+00 0.845E+01 0.483E-01 0.987E-01 0.121E-01 0.134E-03 0.259E-03 0.967E-02 0.669E+01 0.899E-02 0.100E-11 .24542E-04 0.104E+01 0.648E+00 0.000E+00 0.000E+00 0.000E+00
BIGSUB   3        0    3.62454E+00 0.155E+02 0.000E+00 0.471E+01 0.384E+01 0.891E+02 0.163E-01 0.965E+00 0.748E-02 0.839E+01 0.796E-01 0.119E+00 0.145E-01 0.542E-03 0.152E-03 0.117E-01 0.742E+01 0.119E-01 0.228E-05 .16377E-03 0.264E+01 0.623E+00 0.000E+00 0.000E+00 0.000E+00
BIGSUB   4        0    3.44478E+00 0.155E+02 0.000E+00 0.472E+01 0.398E+01 0.808E+02 0.728E-02 0.169E+01 0.220E-02 0.846E+01 0.126E+00 0.165E+00 0.202E-01 0.231E-03 0.222E-03 0.163E-01 0.676E+01 0.923E-02 0.714E-06 .76561E-03 0.844E+01 0.634E+00 0.000E+00 0.000E+00 0.000E+00
BIGSUB   5        0    3.17237E+00 0.155E+02 0.000E+00 0.472E+01 0.418E+01 0.632E+02 0.144E-01 0.364E+01 0.383E-02 0.871E+01 0.348E-01 0.740E-01 0.904E-02 0.135E-03 0.619E-03 0.724E-02 0.506E+01 0.680E-02 0.636E-06 .24432E-04 0.790E+00 0.679E+00 0.000E+00 0.000E+00 0.000E+00
BIGSUB   1        0    4.11943E+00 0.640E+01 0.000E+00 0.573E+01 0.456E+01 0.906E+02 0.414E-02 0.586E-03 0.110E+00 0.435E+01 0.197E-09 0.904E-08 0.198E-08 0.403E-07 0.156E-06 0.274E-08 0.424E+01 0.426E-02 0.602E-05 .19491E-10 0.000E+00 0.356E+00 0.000E+00 0.000E+00 0.000E+00
BIGSUB   2        0    4.10671E+00 0.640E+01 0.000E+00 0.573E+01 0.467E+01 0.789E+02 0.308E-02 0.300E+00 0.000E+00 0.425E+01 0.375E-09 0.100E-08 0.100E-08 0.104E-04 0.548E-04 0.200E-08 0.395E+01 0.363E-02 0.100E-11 .41385E-06 0.000E+00 0.348E+00 0.000E+00 0.000E+00 0.000E+00
BIGSUB   3        0    4.62454E+00 0.640E+01 0.000E+00 0.574E+01 0.445E+01 0.882E+02 0.366E-02 0.370E-02 0.746E-02 0.446E+01 0.918E-10 0.879E-03 0.107E-03 0.374E-05 0.212E-06 0.881E-04 0.444E+01 0.511E-02 0.225E-05 .11387E-05 0.595E-09 0.364E+00 0.000E+00 0.000E+00 0.000E+00
BIGSUB   4        0    4.44478E+00 0.640E+01 0.000E+00 0.573E+01 0.462E+01 0.798E+02 0.345E-02 0.261E+00 0.219E-02 0.428E+01 0.349E-09 0.488E-02 0.597E-03 0.336E-04 0.449E-04 0.490E-03 0.402E+01 0.375E-02 0.704E-06 .68071E-05 0.853E-09 0.350E+00 0.000E+00 0.000E+00 0.000E+00
BIGSUB   5        0    4.17237E+00 0.640E+01 0.000E+00 0.573E+01 0.492E+01 0.620E+02 0.949E-02 0.897E+00 0.381E-02 0.390E+01 0.658E-09 0.104E-08 0.992E-09 0.290E-04 0.164E-03 0.198E-08 0.299E+01 0.275E-02 0.624E-06 .11563E-05 0.000E+00 0.319E+00 0.000E+00 0.000E+00 0.000E+00
BIGSUB   1        0    5.11943E+00 0.257E+02 0.000E+00 0.574E+01 0.459E+01 0.926E+02 0.160E+00 0.427E+01 0.960E-01 0.155E+02 0.452E+00 0.100E+01 0.123E+00 0.306E-03 0.320E-03 0.977E-01 0.111E+02 0.171E-01 0.549E-05 .30421E-02 0.327E+02 0.926E+00 0.000E+00 0.000E+00 0.000E+00
BIGSUB   2        0    5.10671E+00 0.257E+02 0.000E+00 0.573E+01 0.469E+01 0.803E+02 0.348E-02 0.585E+01 0.000E+00 0.162E+02 0.589E+00 0.102E+01 0.125E+00 0.350E-03 0.666E-03 0.100E+00 0.104E+02 0.166E-01 0.100E-11 .26762E-02 0.355E+02 0.105E+01 0.000E+00 0.000E+00 0.000E+00
BIGSUB   3        0    5.62454E+00 0.257E+02 0.000E+00 0.574E+01 0.447E+01 0.895E+02 0.264E-01 0.481E+01 0.746E-02 0.162E+02 0.873E+00 0.115E+01 0.141E+00 0.920E-03 0.638E-03 0.114E+00 0.114E+02 0.204E-01 0.225E-05 .36753E-02 0.503E+02 0.944E+00 0.000E+00 0.000E+00 0.000E+00
BIGSUB   4        0    5.44478E+00 0.257E+02 0.000E+00 0.573E+01 0.464E+01 0.812E+02 0.102E-01 0.579E+01 0.219E-02 0.163E+02 0.103E+01 0.134E+01 0.163E+00 0.471E-03 0.597E-03 0.132E+00 0.105E+02 0.169E-01 0.704E-06 .67858E-02 0.748E+02 0.101E+01 0.000E+00 0.000E+00 0.000E+00
BIGSUB   5        0    5.17237E+00 0.257E+02 0.000E+00 0.573E+01 0.494E+01 0.633E+02 0.279E-01 0.887E+01 0.381E-02 0.167E+02 0.421E+00 0.757E+00 0.925E-01 0.300E-03 0.132E-02 0.741E-01 0.785E+01 0.125E-01 0.624E-06 .20509E-02 0.260E+02 0.115E+01 0.000E+00 0.000E+00 0.000E+00
BIGSUB   1        0    6.11943E+00 0.130E+01 0.000E+00 0.577E+01 0.360E+01 0.902E+02 0.285E-04 0.127E-02 0.256E-01 0.393E+01 0.197E-09 0.607E-05 0.744E-06 0.481E-07 0.331E-06 0.565E-06 0.389E+01 0.590E-02 0.317E-05 .35476E-09 0.000E+00 0.321E+00 0.000E+00 0.000E+00 0.000E+00
BIGSUB   2        0    6.10671E+00 0.130E+01 0.000E+00 0.576E+01 0.380E+01 0.777E+02 0.234E-02 0.135E-02 0.000E+00 0.365E+01 0.375E-09 0.100E-08 0.100E-08 0.137E-07 0.249E-06 0.200E-08 0.364E+01 0.571E-02 0.100E-11 .38035E-09 0.000E+00 0.298E+00 0.000E+00 0.000E+00 0.000E+00
BIGSUB   3        0    6.62454E+00 0.130E+01 0.000E+00 0.578E+01 0.352E+01 0.872E+02 0.158E-04 0.509E-03 0.746E-02 0.400E+01 0.918E-10 0.954E-05 0.117E-05 0.169E-07 0.125E-06 0.888E-06 0.399E+01 0.706E-02 0.224E-05 .68874E-09 0.000E+00 0.327E+00 0.000E+00 0.000E+00 0.000E+00
BIGSUB   4        0    6.44478E+00 0.130E+01 0.000E+00 0.576E+01 0.373E+01 0.786E+02 0.179E-02 0.659E-02 0.219E-02 0.369E+01 0.349E-09 0.160E-05 0.197E-06 0.158E-06 0.123E-05 0.150E-06 0.368E+01 0.581E-02 0.701E-06 .57031E-08 0.000E+00 0.301E+00 0.000E+00 0.000E+00 0.000E+00
BIGSUB   5        0    6.17237E+00 0.130E+01 0.000E+00 0.576E+01 0.422E+01 0.602E+02 0.647E-02 0.191E+00 0.381E-02 0.295E+01 0.658E-09 0.127E-08 0.102E-08 0.143E-05 0.349E-04 0.200E-08 0.275E+01 0.433E-02 0.621E-06 .56774E-07 0.000E+00 0.241E+00 0.000E+00 0.000E+00 0.000E+00
BIGSUB   1        0    7.11943E+00 0.000E+00 0.000E+00 0.575E+01 0.227E+01 0.879E+02 0.569E-07 0.684E-03 0.217E-01 0.137E+01 0.197E-09 0.251E-06 0.316E-07 0.268E-07 0.180E-06 0.252E-07 0.134E+01 0.203E-02 0.300E-05 .19030E-10 0.000E+00 0.113E+00 0.000E+00 0.000E+00 0.000E+00
BIGSUB   2        0    7.10671E+00 0.000E+00 0.000E+00 0.575E+01 0.237E+01 0.753E+02 0.115E-02 0.338E-05 0.000E+00 0.125E+01 0.375E-09 0.100E-08 0.100E-08 0.100E-08 0.141E-08 0.200E-08 0.125E+01 0.196E-02 0.100E-11 .36686E-14 0.000E+00 0.104E+00 0.000E+00 0.000E+00 0.000E+00
BIGSUB   3        0    7.62454E+00 0.000E+00 0.000E+00 0.576E+01 0.220E+01 0.850E+02 0.167E-07 0.689E-04 0.744E-02 0.138E+01 0.918E-10 0.497E-06 0.617E-07 0.316E-08 0.181E-07 0.480E-07 0.137E+01 0.243E-02 0.222E-05 .18031E-12 0.000E+00 0.114E+00 0.000E+00 0.000E+00 0.000E+00
BIGSUB   4        0    7.44478E+00 0.000E+00 0.000E+00 0.575E+01 0.232E+01 0.763E+02 0.870E-03 0.113E-02 0.218E-02 0.127E+01 0.349E-09 0.721E-07 0.971E-08 0.179E-07 0.223E-06 0.859E-08 0.126E+01 0.200E-02 0.694E-06 .40075E-09 0.000E+00 0.105E+00 0.000E+00 0.000E+00 0.000E+00
BIGSUB   5        0    7.17237E+00 0.000E+00 0.000E+00 0.575E+01 0.262E+01 0.576E+02 0.316E-02 0.178E-01 0.380E-02 0.971E+00 0.658E-09 0.989E-09 0.989E-09 0.134E-06 0.325E-05 0.198E-08 0.947E+00 0.149E-02 0.615E-06 .52013E-08 0.000E+00 0.804E-01 0.000E+00 0.000E+00 0.000E+00
BIGSUB   1        0    8.11943E+00 0.000E+00 0.000E+00 0.597E+01 0.188E+01 0.860E+02 0.000E+00 0.409E-03 0.133E-01 0.481E+00 0.197E-09 0.114E-07 0.227E-08 0.164E-07 0.108E-06 0.296E-08 0.459E+00 0.696E-03 0.270E-05 .46836E-11 0.000E+00 0.397E-01 0.000E+00 0.000E+00 0.000E+00
BIGSUB   2        0    8.10671E+00 0.000E+00 0.000E+00 0.597E+01 0.176E+01 0.736E+02 0.000E+00 0.100E-05 0.000E+00 0.432E+00 0.375E-09 0.100E-08 0.100E-08 0.100E-08 0.100E-08 0.200E-08 0.430E+00 0.674E-03 0.100E-11 .29625E-17 0.000E+00 0.357E-01 0.000E+00 0.000E+00 0.000E+00
BIGSUB   3        0    8.62454E+00 0.000E+00 0.000E+00 0.597E+01 0.182E+01 0.832E+02 0.000E+00 0.135E-04 0.741E-02 0.481E+00 0.918E-10 0.270E-07 0.418E-08 0.140E-08 0.419E-08 0.441E-08 0.471E+00 0.834E-03 0.219E-05 .79172E-15 0.000E+00 0.397E-01 0.000E+00 0.000E+00 0.000E+00
BIGSUB   4        0    8.44478E+00 0.000E+00 0.000E+00 0.597E+01 0.177E+01 0.745E+02 0.000E+00 0.278E-03 0.218E-02 0.438E+00 0.349E-09 0.418E-08 0.139E-08 0.692E-08 0.604E-07 0.229E-08 0.434E+00 0.686E-03 0.684E-06 .69195E-10 0.000E+00 0.362E-01 0.000E+00 0.000E+00 0.000E+00
BIGSUB   5        0    8.17237E+00 0.000E+00 0.000E+00 0.597E+01 0.161E+01 0.560E+02 0.000E+00 0.180E-02 0.343E-02 0.333E+00 0.658E-09 0.989E-09 0.989E-09 0.144E-07 0.330E-06 0.198E-08 0.326E+00 0.512E-03 0.581E-06 .44421E-09 0.000E+00 0.275E-01 0.000E+00 0.000E+00 0.000E+00
BIGSUB   1        0    9.11943E+00 0.709E+02 0.000E+00 0.427E+01 0.368E+01 0.935E+02 0.101E+01 0.336E+02 0.201E-01 0.503E+02 0.266E+01 0.627E+01 0.767E+00 0.158E-02 0.248E-02 0.611E+00 0.167E+02 0.301E-01 0.295E-05 .11188E+00 0.501E+03 0.140E+01 0.000E+00 0.000E+00 0.000E+00
BIGSUB   2        0    9.10671E+00 0.709E+02 0.000E+00 0.427E+01 0.374E+01 0.865E+02 0.186E-01 0.312E+02 0.000E+00 0.465E+02 0.356E+01 0.654E+01 0.799E+00 0.174E-02 0.241E-02 0.641E+00 0.152E+02 0.201E-01 0.100E-11 .11201E+00 0.589E+03 0.148E+01 0.000E+00 0.000E+00 0.000E+00
BIGSUB   3        0    9.62454E+00 0.709E+02 0.000E+00 0.427E+01 0.360E+01 0.912E+02 0.406E-01 0.349E+02 0.744E-02 0.511E+02 0.513E+01 0.720E+01 0.881E+00 0.406E-02 0.411E-02 0.710E+00 0.162E+02 0.228E-01 0.222E-05 .12515E+00 0.760E+03 0.137E+01 0.000E+00 0.000E+00 0.000E+00
BIGSUB   4        0    9.44478E+00 0.709E+02 0.000E+00 0.427E+01 0.371E+01 0.862E+02 0.263E-01 0.324E+02 0.218E-02 0.477E+02 0.539E+01 0.783E+01 0.957E+00 0.207E-02 0.238E-02 0.771E+00 0.153E+02 0.201E-01 0.693E-06 .14191E+00 0.843E+03 0.145E+01 0.000E+00 0.000E+00 0.000E+00
BIGSUB   5        0    9.17237E+00 0.709E+02 0.000E+00 0.427E+01 0.387E+01 0.770E+02 0.681E-01 0.284E+02 0.320E-02 0.399E+02 0.254E+01 0.483E+01 0.591E+00 0.139E-02 0.270E-02 0.474E+00 0.115E+02 0.151E-01 0.567E-06 .83263E-01 0.428E+03 0.151E+01 0.000E+00 0.000E+00 0.000E+00
BIGSUB   1        0   10.11943E+00 0.498E+02 0.000E+00 0.413E+01 0.360E+01 0.936E+02 0.193E+01 0.195E+02 0.291E-01 0.415E+02 0.337E-05 0.477E+01 0.584E+00 0.947E-03 0.138E-02 0.465E+00 0.219E+02 0.505E-01 0.335E-05 .42172E-01 0.984E-03 0.351E+01 0.000E+00 0.000E+00 0.000E+00
BIGSUB   2        0   10.10671E+00 0.498E+02 0.000E+00 0.412E+01 0.366E+01 0.879E+02 0.381E+00 0.224E+02 0.000E+00 0.421E+02 0.375E-09 0.488E+01 0.596E+00 0.108E-02 0.210E-02 0.479E+00 0.197E+02 0.402E-01 0.100E-11 .41550E-01 0.978E-08 0.356E+01 0.000E+00 0.000E+00 0.000E+00
BIGSUB   3        0   10.62454E+00 0.498E+02 0.000E+00 0.414E+01 0.354E+01 0.930E+02 0.328E+00 0.206E+02 0.751E-02 0.416E+02 0.320E-02 0.514E+01 0.629E+00 0.275E-02 0.237E-02 0.507E+00 0.210E+02 0.444E-01 0.230E-05 .45051E-01 0.446E+00 0.350E+01 0.000E+00 0.000E+00 0.000E+00
BIGSUB   4        0   10.44478E+00 0.498E+02 0.000E+00 0.413E+01 0.363E+01 0.877E+02 0.364E+00 0.222E+02 0.220E-02 0.420E+02 0.169E-01 0.563E+01 0.689E+00 0.134E-02 0.192E-02 0.555E+00 0.197E+02 0.407E-01 0.718E-06 .53366E-01 0.241E+01 0.345E+01 0.000E+00 0.000E+00 0.000E+00
BIGSUB   5        0   10.17237E+00 0.498E+02 0.000E+00 0.412E+01 0.377E+01 0.778E+02 0.387E+00 0.279E+02 0.327E-02 0.428E+02 0.658E-09 0.362E+01 0.443E+00 0.877E-03 0.354E-02 0.355E+00 0.149E+02 0.306E-01 0.589E-06 .31183E-01 0.328E-07 0.362E+01 0.000E+00 0.000E+00 0.000E+00
BIGSUB   1        0   11.11943E+00 0.531E+02 0.000E+00 0.217E+01 0.216E+01 0.950E+02 0.202E+01 0.220E+02 0.402E-01 0.463E+02 0.230E+01 0.448E+01 0.548E+00 0.639E-03 0.151E-02 0.437E+00 0.243E+02 0.551E-01 0.396E-05 .40293E-01 0.287E+03 0.204E+01 0.000E+00 0.000E+00 0.000E+00
BIGSUB   2        0   11.10671E+00 0.531E+02 0.000E+00 0.218E+01 0.216E+01 0.893E+02 0.906E+00 0.253E+02 0.000E+00 0.474E+02 0.317E+01 0.459E+01 0.560E+00 0.769E-03 0.229E-02 0.450E+00 0.221E+02 0.601E-01 0.100E-11 .39944E-01 0.349E+03 0.235E+01 0.000E+00 0.000E+00 0.000E+00
BIGSUB   3        0   11.62454E+00 0.531E+02 0.000E+00 0.217E+01 0.211E+01 0.949E+02 0.760E+00 0.235E+02 0.762E-02 0.470E+02 0.457E+01 0.466E+01 0.571E+00 0.217E-02 0.263E-02 0.460E+00 0.235E+02 0.630E-01 0.241E-05 .41466E-01 0.453E+03 0.197E+01 0.000E+00 0.000E+00 0.000E+00
BIGSUB   4        0   11.44478E+00 0.531E+02 0.000E+00 0.218E+01 0.216E+01 0.892E+02 0.854E+00 0.251E+02 0.223E-02 0.473E+02 0.481E+01 0.512E+01 0.625E+00 0.982E-03 0.209E-02 0.504E+00 0.222E+02 0.611E-01 0.754E-06 .48012E-01 0.519E+03 0.225E+01 0.000E+00 0.000E+00 0.000E+00
BIGSUB   5        0   11.17237E+00 0.531E+02 0.000E+00 0.218E+01 0.217E+01 0.791E+02 0.785E+00 0.311E+02 0.337E-02 0.478E+02 0.226E+01 0.341E+01 0.417E+00 0.630E-03 0.385E-02 0.335E+00 0.167E+02 0.448E-01 0.628E-06 .30050E-01 0.253E+03 0.277E+01 0.000E+00 0.000E+00 0.000E+00
BIGSUB   1        0   12.11943E+00 0.389E+02 0.000E+00 0.188E+01 0.186E+01 0.953E+02 0.195E+01 0.123E+02 0.531E-01 0.355E+02 0.886E-06 0.196E+01 0.239E+00 0.333E-03 0.821E-03 0.191E+00 0.231E+02 0.517E-01 0.481E-05 .93800E-02 0.298E-07 0.296E+01 0.000E+00 0.000E+00 0.000E+00
BIGSUB   2        0   12.10671E+00 0.389E+02 0.000E+00 0.188E+01 0.187E+01 0.897E+02 0.913E+00 0.151E+02 0.000E+00 0.362E+02 0.375E-09 0.196E+01 0.239E+00 0.414E-03 0.141E-02 0.192E+00 0.211E+02 0.627E-01 0.100E-11 .89674E-02 0.797E-08 0.302E+01 0.000E+00 0.000E+00 0.000E+00
BIGSUB   3        0   12.62454E+00 0.389E+02 0.000E+00 0.187E+01 0.182E+01 0.952E+02 0.893E+00 0.135E+02 0.777E-02 0.363E+02 0.389E-06 0.193E+01 0.236E+00 0.142E-02 0.151E-02 0.190E+00 0.227E+02 0.661E-01 0.255E-05 .91433E-02 0.109E-03 0.303E+01 0.000E+00 0.000E+00 0.000E+00
BIGSUB   4        0   12.44478E+00 0.389E+02 0.000E+00 0.188E+01 0.186E+01 0.896E+02 0.865E+00 0.150E+02 0.228E-02 0.362E+02 0.238E-06 0.213E+01 0.261E+00 0.567E-03 0.128E-02 0.210E+00 0.213E+02 0.658E-01 0.796E-06 .11070E-01 0.182E-07 0.302E+01 0.000E+00 0.000E+00 0.000E+00
BIGSUB   5        0   12.17237E+00 0.389E+02 0.000E+00 0.188E+01 0.187E+01 0.798E+02 0.790E+00 0.202E+02 0.351E-02 0.361E+02 0.658E-09 0.146E+01 0.179E+00 0.350E-03 0.261E-02 0.143E+00 0.159E+02 0.464E-01 0.681E-06 .68297E-02 0.291E-07 0.302E+01 0.000E+00 0.000E+00 0.000E+00
BIGSUB   1        0   13.11943E+00 0.150E+02 0.000E+00 0.190E+01 0.189E+01 0.953E+02 0.962E+00 0.797E+00 0.663E-01 0.163E+02 0.219E-01 0.548E-01 0.670E-02 0.393E-04 0.535E-04 0.534E-02 0.154E+02 0.333E-01 0.580E-05 .55438E-05 0.388E+00 0.129E+01 0.000E+00 0.000E+00 0.000E+00
BIGSUB   2        0   13.10671E+00 0.150E+02 0.000E+00 0.190E+01 0.189E+01 0.898E+02 0.458E+00 0.213E+01 0.000E+00 0.162E+02 0.302E-01 0.542E-01 0.662E-02 0.589E-04 0.292E-03 0.531E-02 0.141E+02 0.413E-01 0.100E-11 .52393E-05 0.463E+00 0.129E+01 0.000E+00 0.000E+00 0.000E+00
BIGSUB   3        0   13.62454E+00 0.150E+02 0.000E+00 0.190E+01 0.185E+01 0.951E+02 0.448E+00 0.113E+01 0.793E-02 0.166E+02 0.480E-01 0.539E-01 0.660E-02 0.347E-03 0.154E-03 0.533E-02 0.154E+02 0.442E-01 0.268E-05 .14583E-04 0.115E+01 0.131E+01 0.000E+00 0.000E+00 0.000E+00
BIGSUB   4        0   13.44478E+00 0.150E+02 0.000E+00 0.190E+01 0.189E+01 0.897E+02 0.433E+00 0.202E+01 0.232E-02 0.163E+02 0.688E-01 0.635E-01 0.776E-02 0.122E-03 0.248E-03 0.626E-02 0.142E+02 0.442E-01 0.836E-06 .60196E-04 0.363E+01 0.128E+01 0.000E+00 0.000E+00 0.000E+00
BIGSUB   5        0   13.17237E+00 0.150E+02 0.000E+00 0.190E+01 0.189E+01 0.801E+02 0.417E+00 0.476E+01 0.365E-02 0.154E+02 0.216E-01 0.409E-01 0.500E-02 0.695E-04 0.770E-03 0.401E-02 0.106E+02 0.305E-01 0.737E-06 .55939E-05 0.346E+00 0.124E+01 0.000E+00 0.000E+00 0.000E+00
BIGSUB   1        0   14.11943E+00 0.234E+02 0.000E+00 0.210E+01 0.209E+01 0.951E+02 0.141E+01 0.369E+01 0.803E-01 0.198E+02 0.149E+00 0.375E+00 0.459E-01 0.760E-04 0.239E-03 0.366E-01 0.161E+02 0.336E-01 0.701E-05 .51854E-03 0.890E+01 0.135E+01 0.000E+00 0.000E+00 0.000E+00
BIGSUB   2        0   14.10671E+00 0.234E+02 0.000E+00 0.210E+01 0.209E+01 0.897E+02 0.669E+00 0.567E+01 0.000E+00 0.204E+02 0.204E+00 0.371E+00 0.454E-01 0.102E-03 0.618E-03 0.364E-01 0.147E+02 0.427E-01 0.100E-11 .48636E-03 0.107E+02 0.143E+01 0.000E+00 0.000E+00 0.000E+00
BIGSUB   3        0   14.62454E+00 0.234E+02 0.000E+00 0.210E+01 0.204E+01 0.950E+02 0.654E+00 0.440E+01 0.810E-02 0.205E+02 0.300E+00 0.362E+00 0.443E-01 0.513E-03 0.513E-03 0.357E-01 0.161E+02 0.455E-01 0.282E-05 .53322E-03 0.150E+02 0.140E+01 0.000E+00 0.000E+00 0.000E+00
BIGSUB   4        0   14.44478E+00 0.234E+02 0.000E+00 0.210E+01 0.209E+01 0.897E+02 0.633E+00 0.554E+01 0.237E-02 0.204E+02 0.335E+00 0.407E+00 0.498E-01 0.167E-03 0.540E-03 0.401E-01 0.149E+02 0.458E-01 0.876E-06 .81182E-03 0.218E+02 0.140E+01 0.000E+00 0.000E+00 0.000E+00
BIGSUB   5        0   14.17237E+00 0.234E+02 0.000E+00 0.210E+01 0.209E+01 0.803E+02 0.591E+00 0.911E+01 0.381E-02 0.202E+02 0.146E+00 0.279E+00 0.341E-01 0.987E-04 0.131E-02 0.273E-01 0.111E+02 0.315E-01 0.802E-06 .38024E-03 0.780E+01 0.148E+01 0.000E+00 0.000E+00 0.000E+00
BIGSUB   1        0   15.11943E+00 0.175E+02 0.000E+00 0.244E+01 0.243E+01 0.948E+02 0.109E+01 0.146E+01 0.948E-01 0.155E+02 0.787E-08 0.244E+00 0.298E-01 0.355E-04 0.933E-04 0.238E-01 0.140E+02 0.281E-01 0.839E-05 .85755E-04 0.215E-08 0.129E+01 0.000E+00 0.000E+00 0.000E+00
BIGSUB   2        0   15.10671E+00 0.175E+02 0.000E+00 0.244E+01 0.243E+01 0.895E+02 0.515E+00 0.301E+01 0.000E+00 0.158E+02 0.375E-09 0.241E+00 0.294E-01 0.498E-04 0.377E-03 0.236E-01 0.128E+02 0.358E-01 0.100E-11 .80326E-04 0.209E-08 0.131E+01 0.000E+00 0.000E+00 0.000E+00
BIGSUB   3        0   15.62454E+00 0.175E+02 0.000E+00 0.245E+01 0.238E+01 0.946E+02 0.504E+00 0.191E+01 0.828E-02 0.160E+02 0.104E-01 0.237E+00 0.290E-01 0.307E-03 0.239E-03 0.234E-01 0.141E+02 0.383E-01 0.294E-05 .12128E-03 0.971E+00 0.131E+01 0.000E+00 0.000E+00 0.000E+00
BIGSUB   4        0   15.44478E+00 0.175E+02 0.000E+00 0.244E+01 0.243E+01 0.894E+02 0.488E+00 0.289E+01 0.242E-02 0.158E+02 0.542E-01 0.271E+00 0.331E-01 0.932E-04 0.322E-03 0.267E-01 0.129E+02 0.385E-01 0.915E-06 .30575E-03 0.520E+01 0.130E+01 0.000E+00 0.000E+00 0.000E+00
BIGSUB   5        0   15.17237E+00 0.175E+02 0.000E+00 0.244E+01 0.243E+01 0.802E+02 0.466E+00 0.581E+01 0.398E-02 0.155E+02 0.192E-03 0.182E+00 0.222E-01 0.554E-04 0.903E-03 0.178E-01 0.966E+01 0.264E-01 0.870E-06 .67500E-04 0.156E-01 0.129E+01 0.000E+00 0.000E+00 0.000E+00
BIGSUB   1        0   16.11943E+00 0.840E+01 0.000E+00 0.275E+01 0.274E+01 0.945E+02 0.386E+00 0.268E-02 0.108E+00 0.858E+01 0.175E-08 0.494E-05 0.606E-06 0.567E-07 0.660E-06 0.457E-06 0.847E+01 0.156E-01 0.981E-05 .24742E-07 0.000E+00 0.711E+00 0.000E+00 0.000E+00 0.000E+00
BIGSUB   2        0   16.10671E+00 0.840E+01 0.000E+00 0.276E+01 0.274E+01 0.892E+02 0.181E+00 0.678E+00 0.000E+00 0.842E+01 0.375E-09 0.100E-08 0.100E-08 0.628E-05 0.119E-03 0.200E-08 0.774E+01 0.192E-01 0.100E-11 .25114E-06 0.000E+00 0.697E+00 0.000E+00 0.000E+00 0.000E+00
BIGSUB   3        0   16.62454E+00 0.840E+01 0.000E+00 0.275E+01 0.267E+01 0.943E+02 0.174E+00 0.551E-01 0.844E-02 0.871E+01 0.918E-10 0.643E-03 0.807E-04 0.345E-04 0.111E-04 0.665E-04 0.865E+01 0.210E-01 0.305E-05 .12476E-05 0.991E-09 0.722E+00 0.000E+00 0.000E+00 0.000E+00
BIGSUB   4        0   16.44478E+00 0.840E+01 0.000E+00 0.276E+01 0.273E+01 0.892E+02 0.170E+00 0.592E+00 0.247E-02 0.845E+01 0.766E-09 0.288E-02 0.352E-03 0.205E-04 0.961E-04 0.291E-03 0.785E+01 0.208E-01 0.947E-06 .80609E-05 0.121E-08 0.700E+00 0.000E+00 0.000E+00 0.000E+00
BIGSUB   5        0   16.17237E+00 0.840E+01 0.000E+00 0.276E+01 0.275E+01 0.800E+02 0.190E+00 0.197E+01 0.414E-02 0.783E+01 0.658E-09 0.948E-04 0.116E-04 0.176E-04 0.346E-03 0.914E-05 0.585E+01 0.142E-01 0.935E-06 .70307E-06 0.575E-09 0.648E+00 0.000E+00 0.000E+00 0.000E+00
BIGSUB   1        0   17.11943E+00 0.323E+02 0.000E+00 0.294E+01 0.286E+01 0.943E+02 0.160E+01 0.814E+01 0.123E+00 0.242E+02 0.373E+00 0.817E+00 0.999E-01 0.975E-04 0.507E-03 0.797E-01 0.159E+02 0.297E-01 0.115E-04 .36987E-02 0.406E+02 0.135E+01 0.000E+00 0.000E+00 0.000E+00
BIGSUB   2        0   17.10671E+00 0.323E+02 0.000E+00 0.294E+01 0.287E+01 0.891E+02 0.731E+00 0.106E+02 0.000E+00 0.252E+02 0.514E+00 0.806E+00 0.984E-01 0.115E-03 0.102E-02 0.791E-01 0.146E+02 0.369E-01 0.100E-11 .35067E-02 0.490E+02 0.151E+01 0.000E+00 0.000E+00 0.000E+00
BIGSUB   3        0   17.62454E+00 0.323E+02 0.000E+00 0.294E+01 0.281E+01 0.942E+02 0.720E+00 0.919E+01 0.863E-02 0.251E+02 0.750E+00 0.777E+00 0.951E-01 0.529E-03 0.996E-03 0.768E-01 0.159E+02 0.392E-01 0.317E-05 .34994E-02 0.657E+02 0.138E+01 0.000E+00 0.000E+00 0.000E+00
BIGSUB   4        0   17.44478E+00 0.323E+02 0.000E+00 0.294E+01 0.286E+01 0.891E+02 0.694E+00 0.105E+02 0.252E-02 0.252E+02 0.823E+00 0.865E+00 0.106E+00 0.163E-03 0.907E-03 0.853E-01 0.147E+02 0.392E-01 0.983E-06 .42408E-02 0.836E+02 0.146E+01 0.000E+00 0.000E+00 0.000E+00
BIGSUB   5        0   17.17237E+00 0.323E+02 0.000E+00 0.294E+01 0.289E+01 0.800E+02 0.645E+00 0.148E+02 0.432E-02 0.258E+02 0.367E+00 0.604E+00 0.738E-01 0.103E-03 0.197E-02 0.592E-01 0.110E+02 0.272E-01 0.101E-05 .26770E-02 0.357E+02 0.171E+01 0.000E+00 0.000E+00 0.000E+00
BIGSUB   1        0   18.11943E+00 0.250E+01 0.000E+00 0.254E+01 0.249E+01 0.937E+02 0.367E-04 0.291E-02 0.137E+00 0.603E+01 0.231E-09 0.658E-05 0.806E-06 0.453E-07 0.703E-06 0.610E-06 0.588E+01 0.102E-01 0.131E-04 .91725E-08 0.000E+00 0.498E+00 0.000E+00 0.000E+00 0.000E+00
BIGSUB   2        0   18.10671E+00 0.250E+01 0.000E+00 0.254E+01 0.248E+01 0.884E+02 0.193E-01 0.905E-01 0.000E+00 0.552E+01 0.375E-09 0.100E-08 0.100E-08 0.183E-05 0.159E-04 0.200E-08 0.542E+01 0.127E-01 0.100E-11 .72996E-07 0.000E+00 0.455E+00 0.000E+00 0.000E+00 0.000E+00
BIGSUB   3        0   18.62454E+00 0.250E+01 0.000E+00 0.253E+01 0.243E+01 0.935E+02 0.203E-04 0.928E-03 0.879E-02 0.596E+01 0.918E-10 0.755E-05 0.924E-06 0.123E-07 0.210E-06 0.701E-06 0.594E+01 0.136E-01 0.326E-05 .12414E-08 0.000E+00 0.492E+00 0.000E+00 0.000E+00 0.000E+00
BIGSUB   4        0   18.44478E+00 0.250E+01 0.000E+00 0.254E+01 0.247E+01 0.884E+02 0.149E-01 0.789E-01 0.257E-02 0.556E+01 0.358E-09 0.175E-05 0.215E-06 0.197E-05 0.139E-04 0.163E-06 0.548E+01 0.135E-01 0.101E-05 .80546E-07 0.000E+00 0.459E+00 0.000E+00 0.000E+00 0.000E+00
BIGSUB   5        0   18.17237E+00 0.250E+01 0.000E+00 0.254E+01 0.249E+01 0.792E+02 0.532E-01 0.529E+00 0.447E-02 0.463E+01 0.658E-09 0.113E-08 0.101E-08 0.552E-05 0.931E-04 0.200E-08 0.410E+01 0.937E-02 0.107E-05 .22017E-06 0.000E+00 0.382E+00 0.000E+00 0.000E+00 0.000E+00
BIGSUB   1        0   19.11943E+00 0.107E+02 0.000E+00 0.222E+01 0.221E+01 0.950E+02 0.308E+00 0.697E-01 0.149E+00 0.674E+01 0.384E-02 0.789E-02 0.965E-03 0.330E-05 0.453E-05 0.770E-03 0.651E+01 0.892E-02 0.147E-04 .34850E-07 0.119E-01 0.556E+00 0.000E+00 0.000E+00 0.000E+00
BIGSUB   2        0   19.10671E+00 0.107E+02 0.000E+00 0.223E+01 0.221E+01 0.897E+02 0.955E-01 0.995E+00 0.000E+00 0.689E+01 0.521E-02 0.766E-02 0.936E-03 0.102E-04 0.169E-03 0.752E-03 0.590E+01 0.898E-02 0.100E-11 .29922E-06 0.143E-01 0.569E+00 0.000E+00 0.000E+00 0.000E+00
BIGSUB   3        0   19.62454E+00 0.107E+02 0.000E+00 0.221E+01 0.215E+01 0.949E+02 0.969E-01 0.217E+00 0.894E-02 0.681E+01 0.142E-01 0.895E-02 0.110E-02 0.971E-04 0.378E-04 0.895E-03 0.658E+01 0.102E-01 0.333E-05 .75779E-05 0.599E+00 0.556E+00 0.000E+00 0.000E+00 0.000E+00
BIGSUB   4        0   19.44478E+00 0.107E+02 0.000E+00 0.223E+01 0.221E+01 0.896E+02 0.906E-01 0.893E+00 0.261E-02 0.687E+01 0.430E-01 0.135E-01 0.165E-02 0.270E-04 0.137E-03 0.135E-02 0.598E+01 0.960E-02 0.103E-05 .45777E-04 0.318E+01 0.559E+00 0.000E+00 0.000E+00 0.000E+00
BIGSUB   5        0   19.17237E+00 0.107E+02 0.000E+00 0.223E+01 0.222E+01 0.803E+02 0.123E+00 0.258E+01 0.463E-02 0.705E+01 0.383E-02 0.619E-02 0.757E-03 0.211E-04 0.451E-03 0.606E-03 0.446E+01 0.670E-02 0.113E-05 .95263E-06 0.152E-01 0.583E+00 0.000E+00 0.000E+00 0.000E+00
BIGSUB   1        0   20.11943E+00 0.860E+01 0.000E+00 0.457E+01 0.387E+01 0.933E+02 0.447E+00 0.975E-03 0.161E+00 0.631E+01 0.197E-09 0.662E-06 0.818E-07 0.170E-07 0.239E-06 0.628E-07 0.614E+01 0.997E-02 0.162E-04 .66547E-09 0.000E+00 0.521E+00 0.000E+00 0.000E+00 0.000E+00
BIGSUB   2        0   20.10671E+00 0.860E+01 0.000E+00 0.456E+01 0.395E+01 0.880E+02 0.214E+00 0.699E+00 0.000E+00 0.629E+01 0.375E-09 0.100E-08 0.100E-08 0.591E-05 0.124E-03 0.200E-08 0.559E+01 0.114E-01 0.100E-11 .23602E-06 0.000E+00 0.519E+00 0.000E+00 0.000E+00 0.000E+00
BIGSUB   3        0   20.62454E+00 0.860E+01 0.000E+00 0.458E+01 0.382E+01 0.932E+02 0.207E+00 0.635E-01 0.909E-02 0.639E+01 0.918E-10 0.427E-03 0.536E-04 0.383E-04 0.127E-04 0.445E-04 0.631E+01 0.128E-01 0.339E-05 .12606E-05 0.143E-08 0.527E+00 0.000E+00 0.000E+00 0.000E+00
BIGSUB   4        0   20.44478E+00 0.860E+01 0.000E+00 0.456E+01 0.392E+01 0.880E+02 0.202E+00 0.611E+00 0.265E-02 0.630E+01 0.349E-09 0.186E-02 0.228E-03 0.192E-04 0.994E-04 0.189E-03 0.568E+01 0.123E-01 0.105E-05 .81624E-05 0.173E-08 0.520E+00 0.000E+00 0.000E+00 0.000E+00
BIGSUB   5        0   20.17237E+00 0.860E+01 0.000E+00 0.455E+01 0.409E+01 0.785E+02 0.217E+00 0.195E+01 0.477E-02 0.618E+01 0.658E-09 0.672E-04 0.823E-05 0.165E-04 0.345E-03 0.648E-05 0.423E+01 0.842E-02 0.119E-05 .65666E-06 0.860E-09 0.510E+00 0.000E+00 0.000E+00 0.000E+00
BIGSUB   1        0   21.11943E+00 0.180E+01 0.000E+00 0.444E+01 0.323E+01 0.916E+02 0.110E-04 0.587E-03 0.172E+00 0.251E+01 0.197E-09 0.395E-06 0.492E-07 0.106E-07 0.144E-06 0.383E-07 0.233E+01 0.344E-02 0.175E-04 .16236E-09 0.000E+00 0.207E+00 0.000E+00 0.000E+00 0.000E+00
BIGSUB   2        0   21.10671E+00 0.180E+01 0.000E+00 0.444E+01 0.336E+01 0.860E+02 0.186E-01 0.416E-01 0.000E+00 0.218E+01 0.375E-09 0.100E-08 0.100E-08 0.936E-06 0.739E-05 0.200E-08 0.214E+01 0.392E-02 0.100E-11 .37007E-07 0.000E+00 0.181E+00 0.000E+00 0.000E+00 0.000E+00
BIGSUB   3        0   21.62454E+00 0.180E+01 0.000E+00 0.444E+01 0.318E+01 0.914E+02 0.607E-05 0.685E-05 0.921E-02 0.243E+01 0.918E-10 0.213E-08 0.114E-08 0.112E-08 0.238E-08 0.210E-08 0.242E+01 0.444E-02 0.342E-05 .49955E-16 0.000E+00 0.201E+00 0.000E+00 0.000E+00 0.000E+00
BIGSUB   4        0   21.44478E+00 0.180E+01 0.000E+00 0.444E+01 0.332E+01 0.861E+02 0.143E-01 0.344E-01 0.268E-02 0.222E+01 0.349E-09 0.107E-06 0.139E-07 0.996E-06 0.613E-05 0.117E-07 0.218E+01 0.425E-02 0.106E-05 .39309E-07 0.000E+00 0.183E+00 0.000E+00 0.000E+00 0.000E+00
BIGSUB   5        0   21.17237E+00 0.180E+01 0.000E+00 0.445E+01 0.362E+01 0.763E+02 0.513E-01 0.175E+00 0.490E-02 0.180E+01 0.658E-09 0.989E-09 0.989E-09 0.303E-05 0.310E-04 0.198E-08 0.162E+01 0.291E-02 0.123E-05 .12009E-06 0.000E+00 0.149E+00 0.000E+00 0.000E+00 0.000E+00
BIGSUB   1        0   22.11943E+00 0.810E+01 0.000E+00 0.436E+01 0.373E+01 0.926E+02 0.456E-02 0.354E-03 0.182E+00 0.316E+01 0.197E-09 0.238E-06 0.300E-07 0.676E-08 0.873E-07 0.238E-07 0.297E+01 0.145E-02 0.187E-04 .37852E-10 0.000E+00 0.262E+00 0.000E+00 0.000E+00 0.000E+00
BIGSUB   2        0   22.10671E+00 0.810E+01 0.000E+00 0.436E+01 0.379E+01 0.865E+02 0.177E-01 0.644E+00 0.000E+00 0.344E+01 0.375E-09 0.100E-08 0.100E-08 0.788E-05 0.115E-03 0.200E-08 0.279E+01 0.145E-02 0.100E-11 .31496E-06 0.000E+00 0.286E+00 0.000E+00 0.000E+00 0.000E+00
BIGSUB   3        0   22.62454E+00 0.810E+01 0.000E+00 0.437E+01 0.366E+01 0.923E+02 0.390E-02 0.362E-01 0.931E-02 0.321E+01 0.114E-02 0.240E-03 0.299E-04 0.275E-04 0.672E-05 0.249E-04 0.317E+01 0.183E-02 0.344E-05 .12252E-05 0.112E+00 0.266E+00 0.000E+00 0.000E+00 0.000E+00
BIGSUB   4        0   22.44478E+00 0.810E+01 0.000E+00 0.436E+01 0.376E+01 0.866E+02 0.149E-01 0.553E+00 0.271E-02 0.341E+01 0.607E-02 0.120E-02 0.147E-03 0.219E-04 0.914E-04 0.123E-03 0.285E+01 0.158E-02 0.106E-05 .80419E-05 0.617E+00 0.279E+00 0.000E+00 0.000E+00 0.000E+00
BIGSUB   5        0   22.17237E+00 0.810E+01 0.000E+00 0.436E+01 0.393E+01 0.763E+02 0.495E-01 0.173E+01 0.501E-02 0.385E+01 0.620E-05 0.246E-04 0.301E-05 0.213E-04 0.309E-03 0.237E-05 0.211E+01 0.108E-02 0.126E-05 .84738E-06 0.915E-04 0.320E+00 0.000E+00 0.000E+00 0.000E+00
BIGSUB   1        0   23.11943E+00 0.000E+00 0.000E+00 0.418E+01 0.217E+01 0.905E+02 0.463E-05 0.214E-03 0.191E+00 0.122E+01 0.197E-09 0.144E-06 0.185E-07 0.447E-08 0.530E-07 0.152E-07 0.102E+01 0.499E-03 0.196E-04 .85874E-11 0.000E+00 0.101E+00 0.000E+00 0.000E+00 0.000E+00
BIGSUB   2        0   23.10671E+00 0.000E+00 0.000E+00 0.418E+01 0.235E+01 0.842E+02 0.168E-01 0.369E-03 0.000E+00 0.961E+00 0.375E-09 0.100E-08 0.100E-08 0.546E-08 0.667E-07 0.200E-08 0.959E+00 0.499E-03 0.100E-11 .12697E-09 0.000E+00 0.793E-01 0.000E+00 0.000E+00 0.000E+00
BIGSUB   3        0   23.62454E+00 0.000E+00 0.000E+00 0.417E+01 0.213E+01 0.901E+02 0.255E-05 0.126E-05 0.939E-02 0.110E+01 0.918E-10 0.100E-08 0.100E-08 0.100E-08 0.106E-08 0.200E-08 0.109E+01 0.628E-03 0.344E-05 .50409E-20 0.000E+00 0.908E-01 0.000E+00 0.000E+00 0.000E+00
BIGSUB   4        0   23.44478E+00 0.000E+00 0.000E+00 0.418E+01 0.230E+01 0.843E+02 0.129E-01 0.177E-02 0.273E-02 0.985E+00 0.349E-09 0.394E-07 0.570E-08 0.341E-07 0.320E-06 0.553E-08 0.978E+00 0.544E-03 0.106E-05 .12813E-08 0.000E+00 0.813E-01 0.000E+00 0.000E+00 0.000E+00
BIGSUB   5        0   23.17237E+00 0.000E+00 0.000E+00 0.418E+01 0.269E+01 0.735E+02 0.462E-01 0.538E-01 0.511E-02 0.788E+00 0.658E-09 0.989E-09 0.989E-09 0.660E-06 0.960E-05 0.198E-08 0.727E+00 0.373E-03 0.129E-05 .26022E-07 0.000E+00 0.651E-01 0.000E+00 0.000E+00 0.000E+00
BIGSUB   1        0   24.11943E+00 0.000E+00 0.000E+00 0.475E+01 0.192E+01 0.886E+02 0.930E-08 0.129E-03 0.199E+00 0.558E+00 0.197E-09 0.872E-07 0.115E-07 0.309E-08 0.324E-07 0.993E-08 0.350E+00 0.171E-03 0.204E-04 .19179E-11 0.000E+00 0.464E-01 0.000E+00 0.000E+00 0.000E+00
BIGSUB   2        0   24.10671E+00 0.000E+00 0.000E+00 0.475E+01 0.200E+01 0.821E+02 0.158E-01 0.164E-05 0.000E+00 0.332E+00 0.375E-09 0.100E-08 0.100E-08 0.100E-08 0.108E-08 0.200E-08 0.329E+00 0.172E-03 0.100E-11 .25404E-15 0.000E+00 0.276E-01 0.000E+00 0.000E+00 0.000E+00
BIGSUB   3        0   24.62454E+00 0.000E+00 0.000E+00 0.475E+01 0.188E+01 0.883E+02 0.000E+00 0.106E-05 0.944E-02 0.386E+00 0.918E-10 0.100E-08 0.100E-08 0.100E-08 0.101E-08 0.200E-08 0.374E+00 0.216E-03 0.342E-05 .61464E-21 0.000E+00 0.320E-01 0.000E+00 0.000E+00 0.000E+00
BIGSUB   4        0   24.44478E+00 0.000E+00 0.000E+00 0.475E+01 0.197E+01 0.823E+02 0.122E-01 0.307E-03 0.275E-02 0.341E+00 0.349E-09 0.241E-07 0.383E-08 0.675E-08 0.579E-07 0.413E-08 0.336E+00 0.187E-03 0.105E-05 .20071E-09 0.000E+00 0.284E-01 0.000E+00 0.000E+00 0.000E+00
BIGSUB   5        0   24.17237E+00 0.000E+00 0.000E+00 0.474E+01 0.217E+01 0.713E+02 0.437E-01 0.501E-02 0.519E-02 0.263E+00 0.658E-09 0.989E-09 0.989E-09 0.623E-07 0.896E-06 0.198E-08 0.250E+00 0.129E-03 0.130E-05 .22527E-08 0.000E+00 0.218E-01 0.000E+00 0.000E+00 0.000E+00
BIGSUB   1        0   25.11943E+00 0.660E+01 0.000E+00 0.538E+01 0.361E+01 0.892E+02 0.000E+00 0.783E-04 0.205E+00 0.185E+01 0.197E-09 0.529E-07 0.735E-08 0.226E-08 0.199E-07 0.678E-08 0.163E+01 0.193E-03 0.210E-04 .42474E-12 0.000E+00 0.151E+00 0.000E+00 0.000E+00 0.000E+00
BIGSUB   2        0   25.10671E+00 0.660E+01 0.000E+00 0.537E+01 0.364E+01 0.823E+02 0.149E-01 0.480E+00 0.000E+00 0.213E+01 0.375E-09 0.100E-08 0.100E-08 0.106E-04 0.866E-04 0.200E-08 0.165E+01 0.213E-03 0.100E-11 .42454E-06 0.000E+00 0.174E+00 0.000E+00 0.000E+00 0.000E+00
BIGSUB   3        0   25.62454E+00 0.660E+01 0.000E+00 0.538E+01 0.347E+01 0.887E+02 0.000E+00 0.499E-02 0.948E-02 0.188E+01 0.712E-03 0.115E-03 0.140E-04 0.329E-05 0.243E-06 0.118E-04 0.187E+01 0.444E-03 0.338E-05 .54322E-06 0.578E-01 0.154E+00 0.000E+00 0.000E+00 0.000E+00
BIGSUB   4        0   25.44478E+00 0.660E+01 0.000E+00 0.538E+01 0.360E+01 0.825E+02 0.114E-01 0.401E+00 0.276E-02 0.209E+01 0.385E-02 0.725E-03 0.886E-04 0.250E-04 0.682E-04 0.742E-04 0.169E+01 0.236E-03 0.104E-05 .38589E-05 0.319E+00 0.169E+00 0.000E+00 0.000E+00 0.000E+00
BIGSUB   5        0   25.17237E+00 0.660E+01 0.000E+00 0.537E+01 0.391E+01 0.709E+02 0.409E-01 0.128E+01 0.526E-02 0.254E+01 0.658E-09 0.989E-09 0.989E-09 0.284E-04 0.231E-03 0.198E-08 0.125E+01 0.162E-03 0.130E-05 .11337E-05 0.000E+00 0.208E+00 0.000E+00 0.000E+00 0.000E+00
BIGSUB   1        0   26.11943E+00 0.000E+00 0.000E+00 0.499E+01 0.209E+01 0.872E+02 0.000E+00 0.476E-04 0.212E+00 0.782E+00 0.197E-09 0.323E-07 0.483E-08 0.176E-08 0.124E-07 0.488E-08 0.561E+00 0.664E-04 0.215E-04 .93700E-13 0.000E+00 0.640E-01 0.000E+00 0.000E+00 0.000E+00
BIGSUB   2        0   26.10671E+00 0.000E+00 0.000E+00 0.498E+01 0.213E+01 0.801E+02 0.137E-01 0.276E-03 0.000E+00 0.569E+00 0.375E-09 0.100E-08 0.100E-08 0.703E-08 0.505E-07 0.200E-08 0.566E+00 0.732E-04 0.100E-11 .15128E-09 0.000E+00 0.465E-01 0.000E+00 0.000E+00 0.000E+00
BIGSUB   3        0   26.62454E+00 0.000E+00 0.000E+00 0.499E+01 0.202E+01 0.867E+02 0.000E+00 0.100E-05 0.951E-02 0.653E+00 0.918E-10 0.100E-08 0.100E-08 0.100E-08 0.100E-08 0.200E-08 0.641E+00 0.153E-03 0.333E-05 .19238E-21 0.000E+00 0.535E-01 0.000E+00 0.000E+00 0.000E+00
BIGSUB   4        0   26.44478E+00 0.000E+00 0.000E+00 0.498E+01 0.210E+01 0.804E+02 0.105E-01 0.124E-02 0.276E-02 0.585E+00 0.349E-09 0.941E-08 0.203E-08 0.416E-07 0.225E-06 0.277E-08 0.579E+00 0.810E-04 0.103E-05 .16014E-08 0.000E+00 0.479E-01 0.000E+00 0.000E+00 0.000E+00
BIGSUB   5        0   26.17237E+00 0.000E+00 0.000E+00 0.498E+01 0.232E+01 0.685E+02 0.377E-01 0.395E-01 0.531E-02 0.476E+00 0.658E-09 0.989E-09 0.989E-09 0.874E-06 0.712E-05 0.198E-08 0.428E+00 0.559E-04 0.130E-05 .34288E-07 0.000E+00 0.389E-01 0.000E+00 0.000E+00 0.000E+00
BIGSUB   1        0   27.11943E+00 0.840E+01 0.000E+00 0.500E+01 0.364E+01 0.888E+02 0.559E-03 0.291E-04 0.217E+00 0.246E+01 0.197E-09 0.199E-07 0.331E-08 0.146E-08 0.787E-08 0.374E-08 0.223E+01 0.177E-03 0.217E-04 .20641E-13 0.000E+00 0.201E+00 0.000E+00 0.000E+00 0.000E+00
BIGSUB   2        0   27.10671E+00 0.840E+01 0.000E+00 0.500E+01 0.358E+01 0.811E+02 0.127E-01 0.677E+00 0.000E+00 0.294E+01 0.375E-09 0.100E-08 0.100E-08 0.134E-04 0.123E-03 0.200E-08 0.226E+01 0.201E-03 0.100E-11 .53646E-06 0.000E+00 0.241E+00 0.000E+00 0.000E+00 0.000E+00
BIGSUB   3        0   27.62454E+00 0.840E+01 0.000E+00 0.501E+01 0.341E+01 0.881E+02 0.457E-03 0.333E-01 0.952E-02 0.260E+01 0.830E-03 0.184E-03 0.229E-04 0.392E-04 0.605E-05 0.192E-04 0.255E+01 0.441E-03 0.328E-05 .11600E-05 0.965E-01 0.212E+00 0.000E+00 0.000E+00 0.000E+00
BIGSUB   4        0   27.44478E+00 0.840E+01 0.000E+00 0.500E+01 0.353E+01 0.815E+02 0.985E-02 0.579E+00 0.277E-02 0.289E+01 0.443E-02 0.944E-03 0.115E-03 0.358E-04 0.970E-04 0.968E-04 0.231E+01 0.220E-03 0.101E-05 .78325E-05 0.531E+00 0.233E+00 0.000E+00 0.000E+00 0.000E+00
BIGSUB   5        0   27.17237E+00 0.840E+01 0.000E+00 0.500E+01 0.385E+01 0.688E+02 0.349E-01 0.181E+01 0.535E-02 0.353E+01 0.658E-09 0.989E-09 0.989E-09 0.361E-04 0.328E-03 0.198E-08 0.171E+01 0.154E-03 0.130E-05 .14354E-05 0.000E+00 0.289E+00 0.000E+00 0.000E+00 0.000E+00
BIGSUB   1        0   28.11943E+00 0.282E+02 0.000E+00 0.448E+01 0.382E+01 0.931E+02 0.311E-01 0.523E+01 0.221E+00 0.159E+02 0.326E+00 0.653E+00 0.799E-01 0.253E-03 0.304E-03 0.638E-01 0.105E+02 0.870E-02 0.219E-04 .28188E-02 0.320E+02 0.899E+00 0.000E+00 0.000E+00 0.000E+00
BIGSUB   2        0   28.10671E+00 0.282E+02 0.000E+00 0.448E+01 0.388E+01 0.844E+02 0.116E-01 0.753E+01 0.000E+00 0.171E+02 0.441E+00 0.632E+00 0.772E-01 0.271E-03 0.779E-03 0.620E-01 0.961E+01 0.697E-02 0.100E-11 .25965E-02 0.379E+02 0.106E+01 0.000E+00 0.000E+00 0.000E+00
BIGSUB   3        0   28.62454E+00 0.282E+02 0.000E+00 0.450E+01 0.376E+01 0.919E+02 0.280E-01 0.606E+01 0.955E-02 0.165E+02 0.646E+00 0.608E+00 0.744E-01 0.783E-03 0.660E-03 0.602E-01 0.104E+02 0.856E-02 0.325E-05 .26456E-02 0.519E+02 0.890E+00 0.000E+00 0.000E+00 0.000E+00
BIGSUB   4        0   28.44478E+00 0.282E+02 0.000E+00 0.448E+01 0.385E+01 0.849E+02 0.173E-01 0.739E+01 0.277E-02 0.171E+02 0.723E+00 0.677E+00 0.828E-01 0.344E-03 0.670E-03 0.669E-01 0.967E+01 0.705E-02 0.999E-06 .32570E-02 0.694E+02 0.101E+01 0.000E+00 0.000E+00 0.000E+00
BIGSUB   5        0   28.17237E+00 0.282E+02 0.000E+00 0.447E+01 0.402E+01 0.710E+02 0.412E-01 0.115E+02 0.540E-02 0.188E+02 0.315E+00 0.475E+00 0.580E-01 0.237E-03 0.164E-02 0.466E-01 0.727E+01 0.530E-02 0.129E-05 .20015E-02 0.277E+02 0.129E+01 0.000E+00 0.000E+00 0.000E+00
BIGSUB   1        0   29.11943E+00 0.709E+02 0.000E+00 0.324E+01 0.305E+01 0.942E+02 0.219E+01 0.358E+02 0.228E+00 0.586E+02 0.176E+01 0.421E+01 0.516E+00 0.507E-03 0.205E-02 0.411E+00 0.225E+02 0.424E-01 0.229E-04 .63104E-01 0.327E+03 0.193E+01 0.000E+00 0.000E+00 0.000E+00
BIGSUB   2        0   29.10671E+00 0.709E+02 0.000E+00 0.324E+01 0.307E+01 0.863E+02 0.631E+00 0.394E+02 0.000E+00 0.597E+02 0.240E+01 0.409E+01 0.499E+00 0.548E-03 0.306E-02 0.402E+00 0.204E+02 0.388E-01 0.100E-11 .59964E-01 0.396E+03 0.241E+01 0.000E+00 0.000E+00 0.000E+00
BIGSUB   3        0   29.62454E+00 0.709E+02 0.000E+00 0.325E+01 0.301E+01 0.940E+02 0.599E+00 0.376E+02 0.963E-02 0.593E+02 0.343E+01 0.388E+01 0.475E+00 0.140E-02 0.357E-02 0.384E+00 0.217E+02 0.417E-01 0.328E-05 .57400E-01 0.507E+03 0.189E+01 0.000E+00 0.000E+00 0.000E+00
BIGSUB   4        0   29.44478E+00 0.709E+02 0.000E+00 0.324E+01 0.306E+01 0.868E+02 0.604E+00 0.393E+02 0.280E-02 0.597E+02 0.347E+01 0.429E+01 0.524E+00 0.648E-03 0.274E-02 0.423E+00 0.204E+02 0.393E-01 0.101E-05 .63968E-01 0.543E+03 0.227E+01 0.000E+00 0.000E+00 0.000E+00
BIGSUB   5        0   29.17237E+00 0.709E+02 0.000E+00 0.324E+01 0.311E+01 0.724E+02 0.563E+00 0.457E+02 0.548E-02 0.611E+02 0.171E+01 0.306E+01 0.374E+00 0.446E-03 0.519E-02 0.301E+00 0.154E+02 0.291E-01 0.132E-05 .45200E-01 0.287E+03 0.315E+01 0.000E+00 0.000E+00 0.000E+00
BIGSUB   1        0   30.11943E+00 0.660E+01 0.000E+00 0.158E+01 0.157E+01 0.956E+02 0.897E-01 0.934E-02 0.235E+00 0.103E+02 0.197E-09 0.259E-04 0.317E-05 0.979E-07 0.233E-05 0.240E-05 0.100E+02 0.166E-01 0.237E-04 .35239E-07 0.000E+00 0.851E+00 0.000E+00 0.000E+00 0.000E+00
BIGSUB   2        0   30.10671E+00 0.660E+01 0.000E+00 0.158E+01 0.157E+01 0.877E+02 0.109E-01 0.485E+00 0.000E+00 0.953E+01 0.375E-09 0.100E-08 0.100E-08 0.850E-05 0.858E-04 0.200E-08 0.905E+01 0.144E-01 0.100E-11 .33971E-06 0.000E+00 0.791E+00 0.000E+00 0.000E+00 0.000E+00
BIGSUB   3        0   30.62454E+00 0.660E+01 0.000E+00 0.158E+01 0.154E+01 0.955E+02 0.896E-02 0.127E-01 0.971E-02 0.983E+01 0.918E-10 0.256E-03 0.315E-04 0.560E-05 0.185E-05 0.260E-04 0.980E+01 0.159E-01 0.330E-05 .42968E-06 0.548E-09 0.816E+00 0.000E+00 0.000E+00 0.000E+00
BIGSUB   4        0   30.44478E+00 0.660E+01 0.000E+00 0.158E+01 0.157E+01 0.882E+02 0.101E-01 0.429E+00 0.282E-02 0.954E+01 0.349E-09 0.121E-02 0.148E-03 0.194E-04 0.715E-04 0.124E-03 0.911E+01 0.146E-01 0.101E-05 .19183E-05 0.769E-09 0.792E+00 0.000E+00 0.000E+00 0.000E+00
BIGSUB   5        0   30.17237E+00 0.660E+01 0.000E+00 0.158E+01 0.157E+01 0.737E+02 0.333E-01 0.197E+01 0.555E-02 0.882E+01 0.658E-09 0.156E-08 0.106E-08 0.239E-04 0.351E-03 0.205E-08 0.684E+01 0.108E-01 0.134E-05 .95361E-06 0.000E+00 0.732E+00 0.000E+00 0.000E+00 0.000E+00
BIGSUB   1        0   31.11943E+00 0.381E+02 0.000E+00 0.112E+01 0.111E+01 0.961E+02 0.199E+01 0.119E+02 0.243E+00 0.304E+02 0.899E+00 0.161E+01 0.197E+00 0.153E-03 0.642E-03 0.157E+00 0.183E+02 0.372E-01 0.252E-04 .97781E-02 0.999E+02 0.156E+01 0.000E+00 0.000E+00 0.000E+00
BIGSUB   2        0   31.10671E+00 0.381E+02 0.000E+00 0.112E+01 0.112E+01 0.884E+02 0.930E+00 0.146E+02 0.000E+00 0.314E+02 0.124E+01 0.154E+01 0.188E+00 0.180E-03 0.125E-02 0.152E+00 0.167E+02 0.442E-01 0.100E-11 .90995E-02 0.121E+03 0.176E+01 0.000E+00 0.000E+00 0.000E+00
BIGSUB   3        0   31.62454E+00 0.381E+02 0.000E+00 0.112E+01 0.109E+01 0.959E+02 0.916E+00 0.131E+02 0.982E-02 0.313E+02 0.179E+01 0.142E+01 0.174E+00 0.659E-03 0.122E-02 0.141E+00 0.182E+02 0.472E-01 0.335E-05 .85734E-02 0.160E+03 0.154E+01 0.000E+00 0.000E+00 0.000E+00
BIGSUB   4        0   31.44478E+00 0.381E+02 0.000E+00 0.112E+01 0.111E+01 0.889E+02 0.883E+00 0.145E+02 0.285E-02 0.314E+02 0.190E+01 0.159E+01 0.194E+00 0.228E-03 0.109E-02 0.157E+00 0.169E+02 0.465E-01 0.103E-05 .98576E-02 0.190E+03 0.170E+01 0.000E+00 0.000E+00 0.000E+00
BIGSUB   5        0   31.17237E+00 0.381E+02 0.000E+00 0.112E+01 0.112E+01 0.747E+02 0.790E+00 0.192E+02 0.565E-02 0.319E+02 0.884E+00 0.116E+01 0.142E+00 0.157E-03 0.239E-02 0.114E+00 0.126E+02 0.327E-01 0.137E-05 .69659E-02 0.884E+02 0.201E+01 0.000E+00 0.000E+00 0.000E+00
BIGSUB   1        0   32.11943E+00 0.250E+01 0.000E+00 0.315E+01 0.299E+01 0.942E+02 0.793E-01 0.580E-02 0.250E+00 0.742E+01 0.197E-09 0.109E-04 0.133E-05 0.620E-07 0.145E-05 0.101E-05 0.715E+01 0.140E-01 0.264E-04 .24956E-08 0.000E+00 0.609E+00 0.000E+00 0.000E+00 0.000E+00
BIGSUB   2        0   32.10671E+00 0.250E+01 0.000E+00 0.315E+01 0.301E+01 0.865E+02 0.425E-01 0.909E-01 0.000E+00 0.663E+01 0.375E-09 0.100E-08 0.100E-08 0.194E-05 0.161E-04 0.200E-08 0.653E+01 0.165E-01 0.100E-11 .76983E-07 0.000E+00 0.544E+00 0.000E+00 0.000E+00 0.000E+00
BIGSUB   3        0   32.62454E+00 0.250E+01 0.000E+00 0.316E+01 0.296E+01 0.941E+02 0.348E-01 0.144E-02 0.991E-02 0.716E+01 0.918E-10 0.227E-04 0.278E-05 0.154E-07 0.337E-06 0.210E-05 0.714E+01 0.178E-01 0.337E-05 .19749E-07 0.000E+00 0.587E+00 0.000E+00 0.000E+00 0.000E+00
BIGSUB   4        0   32.44478E+00 0.250E+01 0.000E+00 0.315E+01 0.300E+01 0.871E+02 0.388E-01 0.818E-01 0.288E-02 0.669E+01 0.349E-09 0.288E-05 0.353E-06 0.203E-05 0.146E-04 0.268E-06 0.660E+01 0.175E-01 0.103E-05 .80904E-07 0.000E+00 0.549E+00 0.000E+00 0.000E+00 0.000E+00
BIGSUB   5        0   32.17237E+00 0.250E+01 0.000E+00 0.315E+01 0.304E+01 0.730E+02 0.576E-01 0.589E+00 0.574E-02 0.553E+01 0.658E-09 0.127E-08 0.102E-08 0.599E-05 0.105E-03 0.201E-08 0.493E+01 0.122E-01 0.140E-05 .23850E-06 0.000E+00 0.454E+00 0.000E+00 0.000E+00 0.000E+00
BIGSUB   1        0   33.11943E+00 0.580E+01 0.000E+00 0.842E+00 0.837E+00 0.964E+02 0.339E-01 0.327E-02 0.257E+00 0.455E+01 0.197E-09 0.450E-06 0.560E-07 0.356E-07 0.825E-06 0.435E-07 0.428E+01 0.587E-02 0.273E-04 .18804E-09 0.000E+00 0.376E+00 0.000E+00 0.000E+00 0.000E+00
BIGSUB   2        0   33.10671E+00 0.580E+01 0.000E+00 0.843E+00 0.839E+00 0.885E+02 0.110E-01 0.396E+00 0.000E+00 0.431E+01 0.375E-09 0.100E-08 0.100E-08 0.467E-05 0.704E-04 0.200E-08 0.391E+01 0.628E-02 0.100E-11 .18664E-06 0.000E+00 0.357E+00 0.000E+00 0.000E+00 0.000E+00
BIGSUB   3        0   33.62454E+00 0.580E+01 0.000E+00 0.840E+00 0.820E+00 0.961E+02 0.431E-02 0.382E-02 0.998E-02 0.437E+01 0.489E-03 0.487E-04 0.595E-05 0.719E-06 0.128E-06 0.507E-05 0.436E+01 0.710E-02 0.339E-05 .71624E-07 0.235E-01 0.362E+00 0.000E+00 0.000E+00 0.000E+00
BIGSUB   4        0   33.44478E+00 0.580E+01 0.000E+00 0.843E+00 0.838E+00 0.891E+02 0.965E-02 0.333E+00 0.290E-02 0.431E+01 0.265E-02 0.306E-03 0.374E-04 0.908E-05 0.559E-04 0.318E-04 0.397E+01 0.666E-02 0.104E-05 .66214E-06 0.130E+00 0.355E+00 0.000E+00 0.000E+00 0.000E+00
BIGSUB   5        0   33.17237E+00 0.580E+01 0.000E+00 0.844E+00 0.841E+00 0.749E+02 0.328E-01 0.110E+01 0.582E-02 0.407E+01 0.658E-09 0.989E-09 0.989E-09 0.127E-04 0.195E-03 0.198E-08 0.296E+01 0.467E-02 0.143E-05 .50748E-06 0.000E+00 0.337E+00 0.000E+00 0.000E+00 0.000E+00
BIGSUB   1        0   34.11943E+00 0.890E+01 0.000E+00 0.389E+01 0.345E+01 0.937E+02 0.640E+00 0.399E-02 0.263E+00 0.662E+01 0.411E-04 0.967E-04 0.118E-04 0.145E-06 0.600E-06 0.944E-05 0.634E+01 0.122E-01 0.283E-04 .56215E-10 0.484E-05 0.551E+00 0.000E+00 0.000E+00 0.000E+00
BIGSUB   2        0   34.10671E+00 0.890E+01 0.000E+00 0.389E+01 0.350E+01 0.862E+02 0.281E+00 0.734E+00 0.000E+00 0.651E+01 0.526E-04 0.881E-04 0.108E-04 0.547E-05 0.131E-03 0.866E-05 0.578E+01 0.140E-01 0.100E-11 .21359E-06 0.541E-05 0.542E+00 0.000E+00 0.000E+00 0.000E+00
BIGSUB   3        0   34.62454E+00 0.890E+01 0.000E+00 0.390E+01 0.341E+01 0.936E+02 0.283E+00 0.825E-01 0.101E-01 0.661E+01 0.182E-02 0.499E-03 0.634E-04 0.416E-04 0.148E-04 0.532E-04 0.651E+01 0.158E-01 0.339E-05 .88012E-06 0.130E+00 0.548E+00 0.000E+00 0.000E+00 0.000E+00
BIGSUB   4        0   34.44478E+00 0.890E+01 0.000E+00 0.389E+01 0.348E+01 0.867E+02 0.267E+00 0.646E+00 0.292E-02 0.653E+01 0.919E-02 0.135E-02 0.165E-03 0.175E-04 0.104E-03 0.140E-03 0.588E+01 0.154E-01 0.104E-05 .58460E-05 0.712E+00 0.538E+00 0.000E+00 0.000E+00 0.000E+00
BIGSUB   5        0   34.17237E+00 0.890E+01 0.000E+00 0.388E+01 0.359E+01 0.728E+02 0.259E+00 0.200E+01 0.590E-02 0.637E+01 0.639E-04 0.165E-03 0.202E-04 0.149E-04 0.355E-03 0.161E-04 0.437E+01 0.104E-01 0.145E-05 .59517E-06 0.490E-03 0.530E+00 0.000E+00 0.000E+00 0.000E+00
BIGSUB   1        0   35.11943E+00 0.241E+02 0.000E+00 0.361E+01 0.328E+01 0.939E+02 0.114E+01 0.386E+01 0.271E+00 0.166E+02 0.383E+00 0.627E+00 0.767E-01 0.854E-04 0.199E-03 0.612E-01 0.125E+02 0.227E-01 0.296E-04 .13542E-02 0.237E+02 0.106E+01 0.000E+00 0.000E+00 0.000E+00
BIGSUB   2        0   35.10671E+00 0.241E+02 0.000E+00 0.361E+01 0.332E+01 0.863E+02 0.495E+00 0.590E+01 0.000E+00 0.173E+02 0.528E+00 0.596E+00 0.728E-01 0.982E-04 0.601E-03 0.586E-01 0.114E+02 0.261E-01 0.100E-11 .12593E-02 0.290E+02 0.115E+01 0.000E+00 0.000E+00 0.000E+00
BIGSUB   3        0   35.62454E+00 0.241E+02 0.000E+00 0.362E+01 0.324E+01 0.938E+02 0.487E+00 0.459E+01 0.101E-01 0.171E+02 0.775E+00 0.546E+00 0.669E-01 0.381E-03 0.443E-03 0.543E-01 0.125E+02 0.283E-01 0.342E-05 .12479E-02 0.407E+02 0.104E+01 0.000E+00 0.000E+00 0.000E+00
BIGSUB   4        0   35.44478E+00 0.241E+02 0.000E+00 0.361E+01 0.330E+01 0.868E+02 0.471E+00 0.578E+01 0.294E-02 0.173E+02 0.872E+00 0.613E+00 0.749E-01 0.135E-03 0.508E-03 0.606E-01 0.115E+02 0.277E-01 0.104E-05 .15583E-02 0.581E+02 0.112E+01 0.000E+00 0.000E+00 0.000E+00
BIGSUB   5        0   35.17237E+00 0.241E+02 0.000E+00 0.361E+01 0.338E+01 0.728E+02 0.436E+00 0.935E+01 0.599E-02 0.179E+02 0.377E+00 0.451E+00 0.551E-01 0.892E-04 0.133E-02 0.443E-01 0.859E+01 0.194E-01 0.148E-05 .98763E-03 0.212E+02 0.127E+01 0.000E+00 0.000E+00 0.000E+00
BIGSUB   1        0   36.11943E+00 0.213E+02 0.000E+00 0.245E+01 0.243E+01 0.948E+02 0.104E+01 0.270E+01 0.278E+00 0.166E+02 0.197E-09 0.314E+00 0.384E-01 0.591E-04 0.138E-03 0.307E-01 0.137E+02 0.239E-01 0.311E-04 .33123E-03 0.404E-08 0.137E+01 0.000E+00 0.000E+00 0.000E+00
BIGSUB   2        0   36.10671E+00 0.213E+02 0.000E+00 0.245E+01 0.244E+01 0.871E+02 0.450E+00 0.455E+01 0.000E+00 0.170E+02 0.375E-09 0.297E+00 0.363E-01 0.704E-04 0.493E-03 0.292E-01 0.125E+02 0.277E-01 0.100E-11 .30572E-03 0.399E-08 0.140E+01 0.000E+00 0.000E+00 0.000E+00
BIGSUB   3        0   36.62454E+00 0.213E+02 0.000E+00 0.245E+01 0.239E+01 0.946E+02 0.444E+00 0.332E+01 0.102E-01 0.170E+02 0.918E-10 0.272E+00 0.333E-01 0.319E-03 0.327E-03 0.270E-01 0.137E+02 0.299E-01 0.345E-05 .31825E-03 0.623E-08 0.140E+01 0.000E+00 0.000E+00 0.000E+00
BIGSUB   4        0   36.44478E+00 0.213E+02 0.000E+00 0.245E+01 0.243E+01 0.877E+02 0.428E+00 0.444E+01 0.297E-02 0.170E+02 0.349E-09 0.306E+00 0.373E-01 0.103E-03 0.414E-03 0.302E-01 0.126E+02 0.292E-01 0.105E-05 .44412E-03 0.819E-08 0.140E+01 0.000E+00 0.000E+00 0.000E+00
BIGSUB   5        0   36.17237E+00 0.213E+02 0.000E+00 0.245E+01 0.244E+01 0.736E+02 0.398E+00 0.784E+01 0.609E-02 0.173E+02 0.658E-09 0.225E+00 0.275E-01 0.684E-04 0.115E-02 0.222E-01 0.942E+01 0.205E-01 0.152E-05 .24518E-03 0.182E-07 0.142E+01 0.000E+00 0.000E+00 0.000E+00
BIGSUB   1        0   37.11943E+00 0.330E+01 0.000E+00 0.179E+01 0.178E+01 0.953E+02 0.148E-02 0.156E-02 0.285E+00 0.565E+01 0.197E-09 0.184E-06 0.234E-07 0.286E-07 0.392E-06 0.189E-07 0.535E+01 0.827E-02 0.323E-04 .43361E-10 0.000E+00 0.473E+00 0.000E+00 0.000E+00 0.000E+00
BIGSUB   2        0   37.10671E+00 0.330E+01 0.000E+00 0.179E+01 0.178E+01 0.875E+02 0.110E-01 0.155E+00 0.000E+00 0.509E+01 0.375E-09 0.100E-08 0.100E-08 0.252E-05 0.275E-04 0.200E-08 0.494E+01 0.955E-02 0.100E-11 .10056E-06 0.000E+00 0.426E+00 0.000E+00 0.000E+00 0.000E+00
BIGSUB   3        0   37.62454E+00 0.330E+01 0.000E+00 0.179E+01 0.175E+01 0.951E+02 0.133E-02 0.632E-03 0.103E-01 0.545E+01 0.236E-04 0.584E-05 0.715E-06 0.899E-07 0.911E-07 0.567E-06 0.544E+01 0.104E-01 0.347E-05 .88640E-10 0.106E-03 0.456E+00 0.000E+00 0.000E+00 0.000E+00
BIGSUB   4        0   37.44478E+00 0.330E+01 0.000E+00 0.179E+01 0.178E+01 0.881E+02 0.882E-02 0.128E+00 0.299E-02 0.513E+01 0.127E-03 0.140E-04 0.171E-05 0.309E-05 0.226E-04 0.147E-05 0.499E+01 0.101E-01 0.106E-05 .10392E-06 0.583E-03 0.429E+00 0.000E+00 0.000E+00 0.000E+00
BIGSUB   5        0   37.17237E+00 0.330E+01 0.000E+00 0.179E+01 0.178E+01 0.739E+02 0.307E-01 0.608E+00 0.618E-02 0.435E+01 0.658E-09 0.106E-08 0.997E-09 0.734E-05 0.108E-03 0.199E-08 0.373E+01 0.708E-02 0.155E-05 .29287E-06 0.000E+00 0.364E+00 0.000E+00 0.000E+00 0.000E+00
BIGSUB   1        0   38.11943E+00 0.790E+01 0.000E+00 0.419E+01 0.381E+01 0.934E+02 0.410E+00 0.888E-03 0.291E+00 0.580E+01 0.197E-09 0.862E-08 0.193E-08 0.166E-07 0.225E-06 0.270E-08 0.549E+01 0.912E-02 0.334E-04 .10584E-10 0.000E+00 0.480E+00 0.000E+00 0.000E+00 0.000E+00
BIGSUB   2        0   38.10671E+00 0.790E+01 0.000E+00 0.418E+01 0.385E+01 0.857E+02 0.175E+00 0.622E+00 0.000E+00 0.560E+01 0.375E-09 0.100E-08 0.100E-08 0.121E-05 0.111E-03 0.200E-08 0.497E+01 0.101E-01 0.100E-11 .48324E-07 0.000E+00 0.464E+00 0.000E+00 0.000E+00 0.000E+00
BIGSUB   3        0   38.62454E+00 0.790E+01 0.000E+00 0.420E+01 0.382E+01 0.932E+02 0.178E+00 0.398E-01 0.104E-01 0.567E+01 0.117E-02 0.169E-03 0.214E-04 0.207E-04 0.648E-05 0.182E-04 0.562E+01 0.114E-01 0.347E-05 .39377E-06 0.919E-01 0.469E+00 0.000E+00 0.000E+00 0.000E+00
BIGSUB   4        0   38.44478E+00 0.790E+01 0.000E+00 0.419E+01 0.384E+01 0.863E+02 0.166E+00 0.540E+00 0.301E-02 0.560E+01 0.625E-02 0.635E-03 0.777E-04 0.116E-04 0.877E-04 0.666E-04 0.506E+01 0.109E-01 0.106E-05 .26541E-05 0.506E+00 0.460E+00 0.000E+00 0.000E+00 0.000E+00
BIGSUB   5        0   38.17237E+00 0.790E+01 0.000E+00 0.418E+01 0.393E+01 0.722E+02 0.170E+00 0.169E+01 0.626E-02 0.546E+01 0.807E-05 0.301E-04 0.368E-05 0.351E-05 0.301E-03 0.290E-05 0.376E+01 0.749E-02 0.157E-05 .14014E-06 0.760E-04 0.453E+00 0.000E+00 0.000E+00 0.000E+00
BIGSUB   1        0   39.11943E+00 0.706E+02 0.000E+00 0.247E+01 0.247E+01 0.947E+02 0.230E+01 0.357E+02 0.300E+00 0.568E+02 0.176E+01 0.338E+01 0.413E+00 0.580E-04 0.151E-02 0.330E+00 0.208E+02 0.303E-01 0.354E-04 .53312E-01 0.350E+03 0.178E+01 0.000E+00 0.000E+00 0.000E+00
BIGSUB   2        0   39.10671E+00 0.706E+02 0.000E+00 0.246E+01 0.246E+01 0.870E+02 0.103E+01 0.395E+02 0.000E+00 0.585E+02 0.242E+01 0.319E+01 0.390E+00 0.529E-04 0.246E-02 0.314E+00 0.190E+02 0.382E-01 0.100E-11 .49528E-01 0.429E+03 0.228E+01 0.000E+00 0.000E+00 0.000E+00
BIGSUB   3        0   39.62454E+00 0.706E+02 0.000E+00 0.247E+01 0.247E+01 0.946E+02 0.992E+00 0.377E+02 0.105E-01 0.581E+02 0.348E+01 0.287E+01 0.351E+00 0.311E-03 0.280E-02 0.285E+00 0.204E+02 0.396E-01 0.352E-05 .44762E-01 0.550E+03 0.175E+01 0.000E+00 0.000E+00 0.000E+00
BIGSUB   4        0   39.44478E+00 0.706E+02 0.000E+00 0.247E+01 0.246E+01 0.876E+02 0.975E+00 0.394E+02 0.305E-02 0.585E+02 0.355E+01 0.322E+01 0.393E+00 0.996E-04 0.214E-02 0.318E+00 0.191E+02 0.401E-01 0.107E-05 .50350E-01 0.597E+03 0.215E+01 0.000E+00 0.000E+00 0.000E+00
BIGSUB   5        0   39.17237E+00 0.706E+02 0.000E+00 0.246E+01 0.246E+01 0.734E+02 0.870E+00 0.455E+02 0.638E-02 0.599E+02 0.173E+01 0.240E+01 0.294E+00 0.454E-04 0.445E-02 0.236E+00 0.143E+02 0.281E-01 0.162E-05 .37538E-01 0.311E+03 0.303E+01 0.000E+00 0.000E+00 0.000E+00
BIGSUB   1        0   40.11943E+00 0.300E+00 0.000E+00 0.356E+01 0.246E+01 0.926E+02 0.533E-04 0.888E-02 0.308E+00 0.747E+01 0.197E-09 0.209E-04 0.256E-05 0.455E-07 0.214E-05 0.193E-05 0.714E+01 0.104E-01 0.371E-04 .23709E-07 0.000E+00 0.624E+00 0.000E+00 0.000E+00 0.000E+00
BIGSUB   2        0   40.10671E+00 0.300E+00 0.000E+00 0.355E+01 0.259E+01 0.847E+02 0.106E-01 0.462E-02 0.000E+00 0.654E+01 0.375E-09 0.100E-08 0.100E-08 0.193E-08 0.761E-06 0.200E-08 0.653E+01 0.131E-01 0.100E-11 .38953E-10 0.000E+00 0.546E+00 0.000E+00 0.000E+00 0.000E+00
BIGSUB   3        0   40.62454E+00 0.300E+00 0.000E+00 0.357E+01 0.247E+01 0.924E+02 0.295E-04 0.404E-02 0.106E-01 0.701E+01 0.918E-10 0.420E-04 0.514E-05 0.186E-07 0.912E-06 0.388E-05 0.699E+01 0.136E-01 0.355E-05 .13193E-06 0.000E+00 0.586E+00 0.000E+00 0.000E+00 0.000E+00
BIGSUB   4        0   40.44478E+00 0.300E+00 0.000E+00 0.356E+01 0.255E+01 0.854E+02 0.808E-02 0.232E-01 0.307E-02 0.659E+01 0.349E-09 0.553E-05 0.677E-06 0.218E-07 0.399E-05 0.511E-06 0.656E+01 0.138E-01 0.108E-05 .74105E-08 0.000E+00 0.550E+00 0.000E+00 0.000E+00 0.000E+00
BIGSUB   5        0   40.17237E+00 0.300E+00 0.000E+00 0.355E+01 0.282E+01 0.709E+02 0.291E-01 0.667E+00 0.648E-02 0.561E+01 0.658E-09 0.156E-08 0.106E-08 0.152E-06 0.110E-03 0.203E-08 0.493E+01 0.967E-02 0.166E-05 .60501E-08 0.000E+00 0.468E+00 0.000E+00 0.000E+00 0.000E+00
BIGSUB   1        0   41.11943E+00 0.000E+00 0.000E+00 0.240E+01 0.144E+01 0.911E+02 0.673E-07 0.467E-02 0.314E+00 0.278E+01 0.197E-09 0.862E-06 0.106E-06 0.250E-07 0.115E-05 0.814E-07 0.245E+01 0.358E-02 0.383E-04 .18105E-09 0.000E+00 0.229E+00 0.000E+00 0.000E+00 0.000E+00
BIGSUB   2        0   41.10671E+00 0.000E+00 0.000E+00 0.240E+01 0.156E+01 0.831E+02 0.982E-02 0.941E-05 0.000E+00 0.225E+01 0.375E-09 0.100E-08 0.100E-08 0.100E-08 0.235E-08 0.200E-08 0.224E+01 0.451E-02 0.100E-11 .24011E-13 0.000E+00 0.185E+00 0.000E+00 0.000E+00 0.000E+00
BIGSUB   3        0   41.62454E+00 0.000E+00 0.000E+00 0.240E+01 0.144E+01 0.909E+02 0.162E-07 0.539E-03 0.107E-01 0.242E+01 0.918E-10 0.370E-05 0.453E-06 0.340E-08 0.127E-06 0.342E-06 0.240E+01 0.467E-02 0.355E-05 .19638E-08 0.000E+00 0.199E+00 0.000E+00 0.000E+00 0.000E+00
BIGSUB   4        0   41.44478E+00 0.000E+00 0.000E+00 0.240E+01 0.152E+01 0.839E+02 0.749E-02 0.453E-02 0.309E-02 0.226E+01 0.349E-09 0.247E-06 0.310E-07 0.889E-08 0.848E-06 0.246E-07 0.225E+01 0.473E-02 0.108E-05 .10615E-09 0.000E+00 0.187E+00 0.000E+00 0.000E+00 0.000E+00
BIGSUB   5        0   41.17237E+00 0.000E+00 0.000E+00 0.240E+01 0.176E+01 0.691E+02 0.271E-01 0.621E-01 0.656E-02 0.177E+01 0.658E-09 0.989E-09 0.989E-09 0.151E-07 0.102E-04 0.198E-08 0.169E+01 0.332E-02 0.168E-05 .56682E-09 0.000E+00 0.146E+00 0.000E+00 0.000E+00 0.000E+00
BIGSUB   1        0   42.11943E+00 0.000E+00 0.000E+00 0.292E+01 0.160E+01 0.895E+02 0.000E+00 0.279E-02 0.320E+00 0.118E+01 0.197E-09 0.365E-07 0.534E-08 0.154E-07 0.687E-06 0.527E-08 0.843E+00 0.123E-02 0.392E-04 .56770E-10 0.000E+00 0.973E-01 0.000E+00 0.000E+00 0.000E+00
BIGSUB   2        0   42.10671E+00 0.000E+00 0.000E+00 0.291E+01 0.169E+01 0.814E+02 0.930E-02 0.100E-05 0.000E+00 0.774E+00 0.375E-09 0.100E-08 0.100E-08 0.100E-08 0.100E-08 0.200E-08 0.771E+00 0.155E-02 0.100E-11 .17550E-17 0.000E+00 0.640E-01 0.000E+00 0.000E+00 0.000E+00
BIGSUB   3        0   42.62454E+00 0.000E+00 0.000E+00 0.292E+01 0.159E+01 0.894E+02 0.000E+00 0.999E-04 0.107E-01 0.839E+00 0.918E-10 0.519E-06 0.644E-07 0.145E-08 0.245E-07 0.496E-07 0.825E+00 0.160E-02 0.353E-05 .25519E-10 0.000E+00 0.694E-01 0.000E+00 0.000E+00 0.000E+00
BIGSUB   4        0   42.44478E+00 0.000E+00 0.000E+00 0.291E+01 0.166E+01 0.822E+02 0.708E-02 0.133E-02 0.311E-02 0.782E+00 0.349E-09 0.119E-07 0.233E-08 0.511E-08 0.280E-06 0.300E-08 0.774E+00 0.163E-02 0.107E-05 .25457E-10 0.000E+00 0.646E-01 0.000E+00 0.000E+00 0.000E+00
BIGSUB   5        0   42.17237E+00 0.000E+00 0.000E+00 0.291E+01 0.185E+01 0.672E+02 0.256E-01 0.627E-02 0.662E-02 0.599E+00 0.658E-09 0.989E-09 0.989E-09 0.232E-08 0.103E-05 0.198E-08 0.583E+00 0.114E-02 0.169E-05 .57046E-10 0.000E+00 0.495E-01 0.000E+00 0.000E+00 0.000E+00
BIGSUB   1        0   43.11943E+00 0.000E+00 0.000E+00 0.521E+01 0.224E+01 0.873E+02 0.000E+00 0.168E-02 0.324E+00 0.627E+00 0.197E-09 0.247E-08 0.118E-08 0.965E-08 0.414E-06 0.213E-08 0.290E+00 0.422E-03 0.398E-04 .16169E-10 0.000E+00 0.518E-01 0.000E+00 0.000E+00 0.000E+00
BIGSUB   2        0   43.10671E+00 0.000E+00 0.000E+00 0.520E+01 0.230E+01 0.791E+02 0.863E-02 0.100E-05 0.000E+00 0.268E+00 0.375E-09 0.100E-08 0.100E-08 0.100E-08 0.100E-08 0.200E-08 0.265E+00 0.532E-03 0.100E-11 .17272E-17 0.000E+00 0.222E-01 0.000E+00 0.000E+00 0.000E+00
BIGSUB   3        0   43.62454E+00 0.000E+00 0.000E+00 0.522E+01 0.222E+01 0.871E+02 0.000E+00 0.215E-04 0.108E-01 0.298E+00 0.918E-10 0.984E-07 0.129E-07 0.109E-08 0.589E-08 0.109E-07 0.284E+00 0.551E-03 0.350E-05 .27366E-12 0.000E+00 0.246E-01 0.000E+00 0.000E+00 0.000E+00
BIGSUB   4        0   43.44478E+00 0.000E+00 0.000E+00 0.520E+01 0.227E+01 0.799E+02 0.656E-02 0.558E-03 0.312E-02 0.273E+00 0.349E-09 0.149E-08 0.106E-08 0.337E-08 0.129E-06 0.204E-08 0.266E+00 0.559E-03 0.106E-05 .61975E-11 0.000E+00 0.226E-01 0.000E+00 0.000E+00 0.000E+00
BIGSUB   5        0   43.17237E+00 0.000E+00 0.000E+00 0.520E+01 0.242E+01 0.648E+02 0.238E-01 0.680E-03 0.667E-02 0.212E+00 0.658E-09 0.989E-09 0.989E-09 0.106E-08 0.113E-06 0.198E-08 0.201E+00 0.393E-03 0.169E-05 .55655E-11 0.000E+00 0.175E-01 0.000E+00 0.000E+00 0.000E+00
BIGSUB   1        0   44.11943E+00 0.000E+00 0.000E+00 0.478E+01 0.217E+01 0.851E+02 0.000E+00 0.101E-02 0.328E+00 0.440E+00 0.197E-09 0.106E-08 0.101E-08 0.621E-08 0.250E-06 0.200E-08 0.996E-01 0.145E-03 0.402E-04 .42304E-11 0.000E+00 0.359E-01 0.000E+00 0.000E+00 0.000E+00
BIGSUB   2        0   44.10671E+00 0.000E+00 0.000E+00 0.479E+01 0.223E+01 0.769E+02 0.744E-02 0.100E-05 0.000E+00 0.944E-01 0.375E-09 0.100E-08 0.100E-08 0.100E-08 0.100E-08 0.200E-08 0.909E-01 0.183E-03 0.100E-11 .17057E-17 0.000E+00 0.770E-02 0.000E+00 0.000E+00 0.000E+00
BIGSUB   3        0   44.62454E+00 0.000E+00 0.000E+00 0.478E+01 0.209E+01 0.850E+02 0.000E+00 0.538E-05 0.108E-01 0.112E+00 0.918E-10 0.213E-07 0.348E-08 0.102E-08 0.205E-08 0.386E-08 0.975E-01 0.189E-03 0.345E-05 .28067E-14 0.000E+00 0.910E-02 0.000E+00 0.000E+00 0.000E+00
BIGSUB   4        0   44.44478E+00 0.000E+00 0.000E+00 0.479E+01 0.218E+01 0.777E+02 0.562E-02 0.293E-03 0.312E-02 0.981E-01 0.349E-09 0.102E-08 0.100E-08 0.241E-08 0.712E-07 0.200E-08 0.914E-01 0.192E-03 0.105E-05 .14506E-11 0.000E+00 0.800E-02 0.000E+00 0.000E+00 0.000E+00
BIGSUB   5        0   44.17237E+00 0.000E+00 0.000E+00 0.479E+01 0.233E+01 0.624E+02 0.205E-01 0.800E-04 0.671E-02 0.796E-01 0.658E-09 0.989E-09 0.989E-09 0.992E-09 0.139E-07 0.198E-08 0.692E-01 0.135E-03 0.169E-05 .45925E-12 0.000E+00 0.649E-02 0.000E+00 0.000E+00 0.000E+00
BIGSUB   1        0   45.11943E+00 0.000E+00 0.000E+00 0.435E+01 0.207E+01 0.831E+02 0.000E+00 0.611E-03 0.331E+00 0.377E+00 0.197E-09 0.100E-08 0.999E-09 0.414E-08 0.151E-06 0.200E-08 0.343E-01 0.499E-04 0.403E-04 .10420E-11 0.000E+00 0.310E-01 0.000E+00 0.000E+00 0.000E+00
BIGSUB   2        0   45.10671E+00 0.000E+00 0.000E+00 0.436E+01 0.211E+01 0.748E+02 0.631E-02 0.100E-05 0.000E+00 0.348E-01 0.375E-09 0.100E-08 0.100E-08 0.100E-08 0.100E-08 0.200E-08 0.312E-01 0.628E-04 0.100E-11 .17200E-17 0.000E+00 0.285E-02 0.000E+00 0.000E+00 0.000E+00
BIGSUB   3        0   45.62454E+00 0.000E+00 0.000E+00 0.435E+01 0.195E+01 0.831E+02 0.000E+00 0.194E-05 0.108E-01 0.477E-01 0.918E-10 0.535E-08 0.153E-08 0.100E-08 0.123E-08 0.240E-08 0.336E-01 0.651E-04 0.340E-05 .28635E-16 0.000E+00 0.391E-02 0.000E+00 0.000E+00 0.000E+00
BIGSUB   4        0   45.44478E+00 0.000E+00 0.000E+00 0.436E+01 0.206E+01 0.757E+02 0.477E-02 0.169E-03 0.312E-02 0.381E-01 0.349E-09 0.100E-08 0.999E-09 0.184E-08 0.420E-07 0.200E-08 0.314E-01 0.659E-04 0.103E-05 .31960E-12 0.000E+00 0.312E-02 0.000E+00 0.000E+00 0.000E+00
BIGSUB   5        0   45.17237E+00 0.000E+00 0.000E+00 0.436E+01 0.218E+01 0.602E+02 0.174E-01 0.108E-04 0.673E-02 0.343E-01 0.658E-09 0.989E-09 0.989E-09 0.989E-09 0.252E-08 0.198E-08 0.239E-01 0.466E-04 0.167E-05 .35703E-13 0.000E+00 0.281E-02 0.000E+00 0.000E+00 0.000E+00
BIGSUB   1        0   46.11943E+00 0.000E+00 0.000E+00 0.394E+01 0.192E+01 0.811E+02 0.000E+00 0.369E-03 0.333E+00 0.357E+00 0.197E-09 0.100E-08 0.999E-09 0.289E-08 0.915E-07 0.200E-08 0.118E-01 0.172E-04 0.401E-04 .24656E-12 0.000E+00 0.296E-01 0.000E+00 0.000E+00 0.000E+00
BIGSUB   2        0   46.10671E+00 0.000E+00 0.000E+00 0.393E+01 0.195E+01 0.728E+02 0.529E-02 0.100E-05 0.000E+00 0.143E-01 0.375E-09 0.100E-08 0.100E-08 0.100E-08 0.100E-08 0.200E-08 0.107E-01 0.216E-04 0.100E-11 .19274E-17 0.000E+00 0.119E-02 0.000E+00 0.000E+00 0.000E+00
BIGSUB   3        0   46.62454E+00 0.000E+00 0.000E+00 0.394E+01 0.179E+01 0.813E+02 0.000E+00 0.120E-05 0.108E-01 0.257E-01 0.918E-10 0.194E-08 0.111E-08 0.100E-08 0.105E-08 0.209E-08 0.116E-01 0.224E-04 0.333E-05 .73075E-18 0.000E+00 0.213E-02 0.000E+00 0.000E+00 0.000E+00
BIGSUB   4        0   46.44478E+00 0.000E+00 0.000E+00 0.394E+01 0.190E+01 0.738E+02 0.400E-02 0.101E-03 0.311E-02 0.174E-01 0.349E-09 0.100E-08 0.999E-09 0.151E-08 0.254E-07 0.200E-08 0.108E-01 0.227E-04 0.101E-05 .69367E-13 0.000E+00 0.145E-02 0.000E+00 0.000E+00 0.000E+00
BIGSUB   5        0   46.17237E+00 0.000E+00 0.000E+00 0.393E+01 0.200E+01 0.582E+02 0.146E-01 0.220E-05 0.674E-02 0.187E-01 0.658E-09 0.989E-09 0.989E-09 0.989E-09 0.115E-08 0.198E-08 0.830E-02 0.161E-04 0.165E-05 .12159E-14 0.000E+00 0.155E-02 0.000E+00 0.000E+00 0.000E+00
BIGSUB   1        0   47.11943E+00 0.000E+00 0.000E+00 0.489E+01 0.254E+01 0.786E+02 0.000E+00 0.223E-03 0.335E+00 0.351E+00 0.197E-09 0.100E-08 0.999E-09 0.214E-08 0.556E-07 0.200E-08 0.412E-02 0.595E-05 0.398E-04 .56890E-13 0.000E+00 0.292E-01 0.000E+00 0.000E+00 0.000E+00
BIGSUB   2        0   47.10671E+00 0.000E+00 0.000E+00 0.488E+01 0.256E+01 0.703E+02 0.437E-02 0.100E-05 0.000E+00 0.731E-02 0.375E-09 0.100E-08 0.100E-08 0.100E-08 0.100E-08 0.200E-08 0.369E-02 0.742E-05 0.100E-11 .27340E-17 0.000E+00 0.608E-03 0.000E+00 0.000E+00 0.000E+00
BIGSUB   3        0   47.62454E+00 0.000E+00 0.000E+00 0.490E+01 0.237E+01 0.789E+02 0.000E+00 0.104E-05 0.107E-01 0.181E-01 0.918E-10 0.120E-08 0.102E-08 0.100E-08 0.101E-08 0.202E-08 0.405E-02 0.775E-05 0.326E-05 .21624E-17 0.000E+00 0.151E-02 0.000E+00 0.000E+00 0.000E+00
BIGSUB   4        0   47.44478E+00 0.000E+00 0.000E+00 0.488E+01 0.250E+01 0.713E+02 0.330E-02 0.607E-04 0.310E-02 0.104E-01 0.349E-09 0.100E-08 0.999E-09 0.131E-08 0.157E-07 0.200E-08 0.373E-02 0.780E-05 0.983E-06 .15482E-13 0.000E+00 0.861E-03 0.000E+00 0.000E+00 0.000E+00
BIGSUB   5        0   47.17237E+00 0.000E+00 0.000E+00 0.487E+01 0.259E+01 0.556E+02 0.120E-01 0.114E-05 0.674E-02 0.134E-01 0.658E-09 0.989E-09 0.989E-09 0.989E-09 0.101E-08 0.198E-08 0.291E-02 0.557E-05 0.162E-05 .34233E-16 0.000E+00 0.111E-02 0.000E+00 0.000E+00 0.000E+00
BIGSUB   1        0   48.11943E+00 0.000E+00 0.000E+00 0.255E+01 0.172E+01 0.769E+02 0.000E+00 0.135E-03 0.336E+00 0.349E+00 0.197E-09 0.100E-08 0.999E-09 0.169E-08 0.339E-07 0.200E-08 0.147E-02 0.208E-05 0.394E-04 .12929E-13 0.000E+00 0.286E-01 0.000E+00 0.000E+00 0.000E+00
BIGSUB   2        0   48.10671E+00 0.000E+00 0.000E+00 0.256E+01 0.170E+01 0.686E+02 0.322E-02 0.100E-05 0.000E+00 0.493E-02 0.375E-09 0.100E-08 0.100E-08 0.100E-08 0.100E-08 0.200E-08 0.127E-02 0.255E-05 0.100E-11 .41426E-17 0.000E+00 0.404E-03 0.000E+00 0.000E+00 0.000E+00
BIGSUB   3        0   48.62454E+00 0.000E+00 0.000E+00 0.255E+01 0.155E+01 0.774E+02 0.000E+00 0.101E-05 0.107E-01 0.155E-01 0.918E-10 0.104E-08 0.100E-08 0.100E-08 0.100E-08 0.200E-08 0.144E-02 0.270E-05 0.317E-05 .74665E-17 0.000E+00 0.127E-02 0.000E+00 0.000E+00 0.000E+00
BIGSUB   4        0   48.44478E+00 0.000E+00 0.000E+00 0.256E+01 0.165E+01 0.696E+02 0.243E-02 0.369E-04 0.309E-02 0.792E-02 0.349E-09 0.100E-08 0.999E-09 0.118E-08 0.984E-08 0.200E-08 0.130E-02 0.269E-05 0.958E-06 .34976E-14 0.000E+00 0.649E-03 0.000E+00 0.000E+00 0.000E+00
BIGSUB   5        0   48.17237E+00 0.000E+00 0.000E+00 0.256E+01 0.165E+01 0.539E+02 0.888E-02 0.100E-05 0.674E-02 0.115E-01 0.658E-09 0.989E-09 0.989E-09 0.989E-09 0.989E-09 0.198E-08 0.103E-02 0.194E-05 0.159E-05 .63967E-17 0.000E+00 0.943E-03 0.000E+00 0.000E+00 0.000E+00
BIGSUB   1        0   49.11943E+00 0.000E+00 0.000E+00 0.355E+01 0.236E+01 0.745E+02 0.000E+00 0.816E-04 0.336E+00 0.349E+00 0.197E-09 0.999E-09 0.999E-09 0.141E-08 0.208E-07 0.200E-08 0.549E-03 0.545E-07 0.387E-04 .29136E-14 0.000E+00 0.283E-01 0.000E+00 0.000E+00 0.000E+00
BIGSUB   2        0   49.10671E+00 0.000E+00 0.000E+00 0.355E+01 0.232E+01 0.662E+02 0.259E-02 0.100E-05 0.000E+00 0.413E-02 0.375E-09 0.100E-08 0.100E-08 0.100E-08 0.100E-08 0.200E-08 0.439E-03 0.000E+00 0.100E-11 .52859E-17 0.000E+00 0.336E-03 0.000E+00 0.000E+00 0.000E+00
BIGSUB   3        0   49.62454E+00 0.000E+00 0.000E+00 0.355E+01 0.213E+01 0.753E+02 0.000E+00 0.100E-05 0.106E-01 0.146E-01 0.918E-10 0.101E-08 0.100E-08 0.100E-08 0.100E-08 0.200E-08 0.545E-03 0.854E-06 0.309E-05 .26491E-16 0.000E+00 0.119E-02 0.000E+00 0.000E+00 0.000E+00
BIGSUB   4        0   49.44478E+00 0.000E+00 0.000E+00 0.355E+01 0.226E+01 0.673E+02 0.195E-02 0.226E-04 0.307E-02 0.709E-02 0.349E-09 0.999E-09 0.999E-09 0.111E-08 0.633E-08 0.200E-08 0.459E-03 0.898E-06 0.932E-06 .88880E-15 0.000E+00 0.576E-03 0.000E+00 0.000E+00 0.000E+00
BIGSUB   5        0   49.17237E+00 0.000E+00 0.000E+00 0.356E+01 0.226E+01 0.517E+02 0.714E-02 0.989E-06 0.672E-02 0.109E-01 0.658E-09 0.989E-09 0.989E-09 0.989E-09 0.989E-09 0.198E-08 0.376E-03 0.400E-07 0.155E-05 .64955E-17 0.000E+00 0.883E-03 0.000E+00 0.000E+00 0.000E+00
BIGSUB   1        0   50.11943E+00 0.000E+00 0.000E+00 0.375E+01 0.226E+01 0.723E+02 0.000E+00 0.496E-04 0.336E+00 0.348E+00 0.197E-09 0.999E-09 0.999E-09 0.125E-08 0.130E-07 0.200E-08 0.229E-03 0.490E-07 0.380E-04 .65384E-15 0.000E+00 0.286E-01 0.000E+00 0.000E+00 0.000E+00
BIGSUB   2        0   50.10671E+00 0.000E+00 0.000E+00 0.375E+01 0.224E+01 0.640E+02 0.173E-02 0.100E-05 0.000E+00 0.388E-02 0.375E-09 0.100E-08 0.100E-08 0.100E-08 0.100E-08 0.200E-08 0.153E-03 0.000E+00 0.100E-11 .58112E-17 0.000E+00 0.318E-03 0.000E+00 0.000E+00 0.000E+00
BIGSUB   3        0   50.62454E+00 0.000E+00 0.000E+00 0.376E+01 0.207E+01 0.732E+02 0.000E+00 0.100E-05 0.105E-01 0.143E-01 0.918E-10 0.100E-08 0.100E-08 0.100E-08 0.100E-08 0.200E-08 0.231E-03 0.535E-07 0.300E-05 .11642E-16 0.000E+00 0.117E-02 0.000E+00 0.000E+00 0.000E+00
BIGSUB   4        0   50.44478E+00 0.000E+00 0.000E+00 0.375E+01 0.219E+01 0.652E+02 0.130E-02 0.140E-04 0.305E-02 0.680E-02 0.349E-09 0.999E-09 0.999E-09 0.107E-08 0.421E-08 0.200E-08 0.170E-03 0.122E-07 0.905E-06 .18186E-15 0.000E+00 0.558E-03 0.000E+00 0.000E+00 0.000E+00
BIGSUB   5        0   50.17237E+00 0.000E+00 0.000E+00 0.375E+01 0.222E+01 0.494E+02 0.476E-02 0.989E-06 0.669E-02 0.106E-01 0.658E-09 0.989E-09 0.989E-09 0.989E-09 0.989E-09 0.198E-08 0.143E-03 0.235E-07 0.151E-05 .67882E-17 0.000E+00 0.873E-03 0.000E+00 0.000E+00 0.000E+00
BIGSUB   1        0   51.11943E+00 0.000E+00 0.000E+00 0.390E+01 0.216E+01 0.701E+02 0.000E+00 0.303E-04 0.336E+00 0.348E+00 0.197E-09 0.999E-09 0.999E-09 0.115E-08 0.821E-08 0.200E-08 0.115E-03 0.440E-07 0.372E-04 .14647E-15 0.000E+00 0.287E-01 0.000E+00 0.000E+00 0.000E+00
BIGSUB   2        0   51.10671E+00 0.000E+00 0.000E+00 0.389E+01 0.216E+01 0.618E+02 0.833E-03 0.100E-05 0.000E+00 0.381E-02 0.375E-09 0.100E-08 0.100E-08 0.100E-08 0.100E-08 0.200E-08 0.549E-04 0.000E+00 0.100E-11 .59636E-17 0.000E+00 0.315E-03 0.000E+00 0.000E+00 0.000E+00
BIGSUB   3        0   51.62454E+00 0.000E+00 0.000E+00 0.391E+01 0.200E+01 0.712E+02 0.000E+00 0.100E-05 0.105E-01 0.141E-01 0.918E-10 0.100E-08 0.100E-08 0.100E-08 0.100E-08 0.200E-08 0.119E-03 0.481E-07 0.291E-05 .12428E-16 0.000E+00 0.116E-02 0.000E+00 0.000E+00 0.000E+00
BIGSUB   4        0   51.44478E+00 0.000E+00 0.000E+00 0.389E+01 0.211E+01 0.630E+02 0.629E-03 0.886E-05 0.303E-02 0.670E-02 0.349E-09 0.999E-09 0.999E-09 0.104E-08 0.294E-08 0.200E-08 0.701E-04 0.109E-07 0.877E-06 .45806E-16 0.000E+00 0.554E-03 0.000E+00 0.000E+00 0.000E+00
BIGSUB   5        0   51.17237E+00 0.000E+00 0.000E+00 0.389E+01 0.217E+01 0.473E+02 0.230E-02 0.989E-06 0.665E-02 0.105E-01 0.658E-09 0.989E-09 0.989E-09 0.989E-09 0.989E-09 0.198E-08 0.592E-04 0.138E-07 0.147E-05 .68510E-17 0.000E+00 0.872E-03 0.000E+00 0.000E+00 0.000E+00
BIGSUB   1        0   52.11943E+00 0.000E+00 0.000E+00 0.482E+01 0.282E+01 0.673E+02 0.000E+00 0.187E-04 0.335E+00 0.347E+00 0.197E-09 0.999E-09 0.999E-09 0.109E-08 0.534E-08 0.200E-08 0.724E-04 0.396E-07 0.363E-04 .32810E-16 0.000E+00 0.282E-01 0.000E+00 0.000E+00 0.000E+00
BIGSUB   2        0   52.10671E+00 0.000E+00 0.000E+00 0.482E+01 0.261E+01 0.592E+02 0.000E+00 0.100E-05 0.000E+00 0.381E-02 0.375E-09 0.100E-08 0.100E-08 0.100E-08 0.100E-08 0.200E-08 0.212E-04 0.000E+00 0.100E-11 .59672E-17 0.000E+00 0.310E-03 0.000E+00 0.000E+00 0.000E+00
BIGSUB   3        0   52.62454E+00 0.000E+00 0.000E+00 0.482E+01 0.259E+01 0.686E+02 0.000E+00 0.100E-05 0.104E-01 0.140E-01 0.918E-10 0.100E-08 0.100E-08 0.100E-08 0.100E-08 0.200E-08 0.767E-04 0.433E-07 0.281E-05 .12519E-16 0.000E+00 0.114E-02 0.000E+00 0.000E+00 0.000E+00
BIGSUB   4        0   52.44478E+00 0.000E+00 0.000E+00 0.482E+01 0.258E+01 0.605E+02 0.000E+00 0.574E-05 0.300E-02 0.666E-02 0.349E-09 0.999E-09 0.999E-09 0.102E-08 0.217E-08 0.200E-08 0.348E-04 0.982E-08 0.848E-06 .15298E-16 0.000E+00 0.542E-03 0.000E+00 0.000E+00 0.000E+00
BIGSUB   5        0   52.17237E+00 0.000E+00 0.000E+00 0.482E+01 0.225E+01 0.450E+02 0.000E+00 0.989E-06 0.661E-02 0.105E-01 0.658E-09 0.989E-09 0.989E-09 0.989E-09 0.989E-09 0.198E-08 0.279E-04 0.806E-08 0.143E-05 .68255E-17 0.000E+00 0.855E-03 0.000E+00 0.000E+00 0.000E+00
BIGSUB   1        0   53.11943E+00 0.000E+00 0.000E+00 0.438E+01 0.265E+01 0.646E+02 0.000E+00 0.116E-04 0.333E+00 0.345E+00 0.197E-09 0.999E-09 0.999E-09 0.105E-08 0.362E-08 0.200E-08 0.544E-04 0.355E-07 0.353E-04 .73588E-17 0.000E+00 0.282E-01 0.000E+00 0.000E+00 0.000E+00
BIGSUB   2        0   53.10671E+00 0.000E+00 0.000E+00 0.438E+01 0.234E+01 0.569E+02 0.000E+00 0.100E-05 0.000E+00 0.382E-02 0.375E-09 0.100E-08 0.100E-08 0.100E-08 0.100E-08 0.200E-08 0.962E-05 0.000E+00 0.100E-11 .59226E-17 0.000E+00 0.312E-03 0.000E+00 0.000E+00 0.000E+00
BIGSUB   3        0   53.62454E+00 0.000E+00 0.000E+00 0.439E+01 0.247E+01 0.662E+02 0.000E+00 0.100E-05 0.103E-01 0.139E-01 0.918E-10 0.100E-08 0.100E-08 0.100E-08 0.100E-08 0.200E-08 0.585E-04 0.390E-07 0.272E-05 .12369E-16 0.000E+00 0.113E-02 0.000E+00 0.000E+00 0.000E+00
BIGSUB   4        0   53.44478E+00 0.000E+00 0.000E+00 0.438E+01 0.234E+01 0.581E+02 0.000E+00 0.386E-05 0.297E-02 0.664E-02 0.349E-09 0.999E-09 0.999E-09 0.101E-08 0.170E-08 0.200E-08 0.218E-04 0.882E-08 0.819E-06 .84148E-17 0.000E+00 0.543E-03 0.000E+00 0.000E+00 0.000E+00
BIGSUB   5        0   53.17237E+00 0.000E+00 0.000E+00 0.437E+01 0.180E+01 0.432E+02 0.000E+00 0.989E-06 0.656E-02 0.105E-01 0.658E-09 0.989E-09 0.989E-09 0.989E-09 0.989E-09 0.198E-08 0.157E-04 0.472E-08 0.138E-05 .67738E-17 0.000E+00 0.854E-03 0.000E+00 0.000E+00 0.000E+00
BIGSUB   1        0   54.11943E+00 0.000E+00 0.000E+00 0.490E+01 0.288E+01 0.618E+02 0.000E+00 0.741E-05 0.331E+00 0.343E+00 0.197E-09 0.999E-09 0.999E-09 0.103E-08 0.258E-08 0.200E-08 0.452E-04 0.319E-07 0.343E-04 .16547E-17 0.000E+00 0.282E-01 0.000E+00 0.000E+00 0.000E+00
BIGSUB   2        0   54.10671E+00 0.000E+00 0.000E+00 0.490E+01 0.253E+01 0.544E+02 0.000E+00 0.100E-05 0.000E+00 0.384E-02 0.375E-09 0.100E-08 0.100E-08 0.100E-08 0.100E-08 0.200E-08 0.564E-05 0.000E+00 0.100E-11 .58664E-17 0.000E+00 0.315E-03 0.000E+00 0.000E+00 0.000E+00
BIGSUB   3        0   54.62454E+00 0.000E+00 0.000E+00 0.491E+01 0.269E+01 0.635E+02 0.000E+00 0.100E-05 0.102E-01 0.138E-01 0.918E-10 0.100E-08 0.100E-08 0.100E-08 0.100E-08 0.200E-08 0.491E-04 0.351E-07 0.262E-05 .12154E-16 0.000E+00 0.113E-02 0.000E+00 0.000E+00 0.000E+00
BIGSUB   4        0   54.44478E+00 0.000E+00 0.000E+00 0.490E+01 0.254E+01 0.556E+02 0.000E+00 0.272E-05 0.294E-02 0.663E-02 0.349E-09 0.999E-09 0.999E-09 0.101E-08 0.142E-08 0.200E-08 0.166E-04 0.793E-08 0.790E-06 .68190E-17 0.000E+00 0.544E-03 0.000E+00 0.000E+00 0.000E+00
BIGSUB   5        0   54.17237E+00 0.000E+00 0.000E+00 0.489E+01 0.193E+01 0.413E+02 0.000E+00 0.989E-06 0.651E-02 0.104E-01 0.658E-09 0.989E-09 0.989E-09 0.989E-09 0.989E-09 0.198E-08 0.107E-04 0.277E-08 0.134E-05 .67182E-17 0.000E+00 0.855E-03 0.000E+00 0.000E+00 0.000E+00
BIGSUB   1        0   55.11943E+00 0.000E+00 0.000E+00 0.411E+01 0.267E+01 0.591E+02 0.000E+00 0.487E-05 0.329E+00 0.341E+00 0.197E-09 0.999E-09 0.999E-09 0.102E-08 0.195E-08 0.200E-08 0.386E-04 0.287E-07 0.332E-04 .37388E-18 0.000E+00 0.280E-01 0.000E+00 0.000E+00 0.000E+00
BIGSUB   2        0   55.10671E+00 0.000E+00 0.000E+00 0.410E+01 0.235E+01 0.520E+02 0.000E+00 0.100E-05 0.000E+00 0.386E-02 0.375E-09 0.100E-08 0.100E-08 0.100E-08 0.100E-08 0.200E-08 0.356E-05 0.000E+00 0.100E-11 .58128E-17 0.000E+00 0.317E-03 0.000E+00 0.000E+00 0.000E+00
BIGSUB   3        0   55.62454E+00 0.000E+00 0.000E+00 0.412E+01 0.253E+01 0.609E+02 0.000E+00 0.100E-05 0.101E-01 0.137E-01 0.918E-10 0.100E-08 0.100E-08 0.100E-08 0.100E-08 0.200E-08 0.422E-04 0.316E-07 0.252E-05 .11943E-16 0.000E+00 0.112E-02 0.000E+00 0.000E+00 0.000E+00
BIGSUB   4        0   55.44478E+00 0.000E+00 0.000E+00 0.411E+01 0.235E+01 0.532E+02 0.000E+00 0.204E-05 0.291E-02 0.661E-02 0.349E-09 0.999E-09 0.999E-09 0.100E-08 0.126E-08 0.200E-08 0.134E-04 0.712E-08 0.761E-06 .64134E-17 0.000E+00 0.543E-03 0.000E+00 0.000E+00 0.000E+00
BIGSUB   5        0   55.17237E+00 0.000E+00 0.000E+00 0.410E+01 0.178E+01 0.395E+02 0.000E+00 0.989E-06 0.645E-02 0.104E-01 0.658E-09 0.989E-09 0.989E-09 0.989E-09 0.989E-09 0.198E-08 0.796E-05 0.162E-08 0.129E-05 .66672E-17 0.000E+00 0.852E-03 0.000E+00 0.000E+00 0.000E+00
BIGSUB   1        0   56.11943E+00 0.000E+00 0.000E+00 0.515E+01 0.301E+01 0.561E+02 0.000E+00 0.333E-05 0.327E+00 0.339E+00 0.197E-09 0.999E-09 0.999E-09 0.101E-08 0.157E-08 0.200E-08 0.347E-04 0.258E-07 0.322E-04 .85384E-19 0.000E+00 0.276E-01 0.000E+00 0.000E+00 0.000E+00
BIGSUB   2        0   56.10671E+00 0.000E+00 0.000E+00 0.514E+01 0.264E+01 0.494E+02 0.000E+00 0.100E-05 0.000E+00 0.388E-02 0.375E-09 0.100E-08 0.100E-08 0.100E-08 0.100E-08 0.200E-08 0.356E-05 0.000E+00 0.100E-11 .57609E-17 0.000E+00 0.316E-03 0.000E+00 0.000E+00 0.000E+00
BIGSUB   3        0   56.62454E+00 0.000E+00 0.000E+00 0.516E+01 0.286E+01 0.581E+02 0.000E+00 0.100E-05 0.993E-02 0.136E-01 0.918E-10 0.100E-08 0.100E-08 0.100E-08 0.100E-08 0.200E-08 0.379E-04 0.284E-07 0.243E-05 .11732E-16 0.000E+00 0.111E-02 0.000E+00 0.000E+00 0.000E+00
BIGSUB   4        0   56.44478E+00 0.000E+00 0.000E+00 0.515E+01 0.265E+01 0.506E+02 0.000E+00 0.163E-05 0.287E-02 0.659E-02 0.349E-09 0.999E-09 0.999E-09 0.100E-08 0.115E-08 0.200E-08 0.125E-04 0.640E-08 0.732E-06 .62758E-17 0.000E+00 0.537E-03 0.000E+00 0.000E+00 0.000E+00
BIGSUB   5        0   56.17237E+00 0.000E+00 0.000E+00 0.514E+01 0.201E+01 0.375E+02 0.000E+00 0.989E-06 0.638E-02 0.103E-01 0.658E-09 0.989E-09 0.989E-09 0.989E-09 0.989E-09 0.198E-08 0.727E-05 0.000E+00 0.124E-05 .66201E-17 0.000E+00 0.841E-03 0.000E+00 0.000E+00 0.000E+00
BIGSUB   1        0   57.11943E+00 0.000E+00 0.000E+00 0.519E+01 0.310E+01 0.530E+02 0.000E+00 0.240E-05 0.324E+00 0.336E+00 0.197E-09 0.999E-09 0.999E-09 0.101E-08 0.135E-08 0.200E-08 0.311E-04 0.232E-07 0.311E-04 .20111E-19 0.000E+00 0.273E-01 0.000E+00 0.000E+00 0.000E+00
BIGSUB   2        0   57.10671E+00 0.000E+00 0.000E+00 0.519E+01 0.272E+01 0.466E+02 0.000E+00 0.100E-05 0.000E+00 0.390E-02 0.375E-09 0.100E-08 0.100E-08 0.100E-08 0.100E-08 0.200E-08 0.355E-05 0.000E+00 0.100E-11 .57155E-17 0.000E+00 0.317E-03 0.000E+00 0.000E+00 0.000E+00
BIGSUB   3        0   57.62454E+00 0.000E+00 0.000E+00 0.520E+01 0.293E+01 0.551E+02 0.000E+00 0.100E-05 0.981E-02 0.135E-01 0.918E-10 0.100E-08 0.100E-08 0.100E-08 0.100E-08 0.200E-08 0.342E-04 0.256E-07 0.234E-05 .11542E-16 0.000E+00 0.109E-02 0.000E+00 0.000E+00 0.000E+00
BIGSUB   4        0   57.44478E+00 0.000E+00 0.000E+00 0.519E+01 0.272E+01 0.479E+02 0.000E+00 0.138E-05 0.283E-02 0.657E-02 0.349E-09 0.999E-09 0.999E-09 0.100E-08 0.109E-08 0.200E-08 0.116E-04 0.575E-08 0.704E-06 .62053E-17 0.000E+00 0.534E-03 0.000E+00 0.000E+00 0.000E+00
BIGSUB   5        0   57.17237E+00 0.000E+00 0.000E+00 0.519E+01 0.207E+01 0.355E+02 0.000E+00 0.989E-06 0.631E-02 0.103E-01 0.658E-09 0.989E-09 0.989E-09 0.989E-09 0.989E-09 0.198E-08 0.686E-05 0.000E+00 0.120E-05 .65796E-17 0.000E+00 0.835E-03 0.000E+00 0.000E+00 0.000E+00
BIGSUB   1        0   58.11943E+00 0.000E+00 0.000E+00 0.479E+01 0.267E+01 0.503E+02 0.000E+00 0.185E-05 0.321E+00 0.333E+00 0.197E-09 0.999E-09 0.999E-09 0.100E-08 0.121E-08 0.200E-08 0.280E-04 0.208E-07 0.300E-04 .52496E-20 0.000E+00 0.274E-01 0.000E+00 0.000E+00 0.000E+00
BIGSUB   2        0   58.10671E+00 0.000E+00 0.000E+00 0.478E+01 0.234E+01 0.443E+02 0.000E+00 0.100E-05 0.000E+00 0.392E-02 0.375E-09 0.100E-08 0.100E-08 0.100E-08 0.100E-08 0.200E-08 0.355E-05 0.000E+00 0.100E-11 .56761E-17 0.000E+00 0.323E-03 0.000E+00 0.000E+00 0.000E+00
[...]
BIGSUB   4        0  352.44478E+00 0.201E+02 0.000E+00 0.414E+01 0.359E+01 0.789E+02 0.781E-02 0.281E+01 0.151E-02 0.102E+02 0.112E+00 0.574E-01 0.705E-02 0.345E-03 0.225E-03 0.548E-02 0.736E+01 0.677E-02 0.666E-06 .65485E-04 0.113E+02 0.708E+00 0.000E+00 0.000E+00 0.000E+00
BIGSUB   5        0  352.17237E+00 0.201E+02 0.000E+00 0.415E+01 0.374E+01 0.620E+02 0.133E-01 0.490E+01 0.115E-02 0.104E+02 0.312E-01 0.477E-01 0.585E-02 0.218E-03 0.677E-03 0.452E-02 0.550E+01 0.503E-02 0.301E-06 .60318E-04 0.190E+01 0.776E+00 0.000E+00 0.000E+00 0.000E+00
BIGSUB   1        0  353.11943E+00 0.582E+02 0.000E+00 0.327E+01 0.305E+01 0.941E+02 0.184E+01 0.256E+02 0.573E-02 0.457E+02 0.832E+00 0.162E+01 0.199E+00 0.668E-03 0.919E-03 0.153E+00 0.200E+02 0.487E-01 0.255E-05 .20434E-01 0.162E+03 0.169E+01 0.000E+00 0.000E+00 0.000E+00
BIGSUB   2        0  353.10671E+00 0.582E+02 0.000E+00 0.326E+01 0.306E+01 0.821E+02 0.402E-02 0.275E+02 0.000E+00 0.457E+02 0.100E+01 0.132E+01 0.162E+00 0.715E-03 0.166E-02 0.125E+00 0.182E+02 0.341E-01 0.100E-11 .15469E-01 0.172E+03 0.205E+01 0.000E+00 0.000E+00 0.000E+00
BIGSUB   3        0  353.62454E+00 0.582E+02 0.000E+00 0.327E+01 0.302E+01 0.892E+02 0.459E-01 0.256E+02 0.492E-02 0.454E+02 0.166E+01 0.145E+01 0.180E+00 0.966E-03 0.730E-03 0.143E+00 0.198E+02 0.387E-01 0.218E-05 .18873E-01 0.268E+03 0.167E+01 0.000E+00 0.000E+00 0.000E+00
BIGSUB   4        0  353.44478E+00 0.582E+02 0.000E+00 0.327E+01 0.305E+01 0.826E+02 0.162E-01 0.274E+02 0.154E-02 0.457E+02 0.168E+01 0.124E+01 0.152E+00 0.888E-03 0.135E-02 0.118E+00 0.183E+02 0.344E-01 0.686E-06 .14481E-01 0.272E+03 0.195E+01 0.000E+00 0.000E+00 0.000E+00
BIGSUB   5        0  353.17237E+00 0.582E+02 0.000E+00 0.326E+01 0.311E+01 0.656E+02 0.435E-01 0.330E+02 0.117E-02 0.467E+02 0.723E+00 0.101E+01 0.124E+00 0.577E-03 0.330E-02 0.960E-01 0.137E+02 0.256E-01 0.317E-06 .12016E-01 0.126E+03 0.256E+01 0.000E+00 0.000E+00 0.000E+00
BIGSUB   1        0  354.11943E+00 0.800E+00 0.000E+00 0.467E+01 0.320E+01 0.917E+02 0.493E-04 0.653E-02 0.583E-02 0.690E+01 0.197E-09 0.151E-04 0.185E-05 0.940E-07 0.159E-05 0.134E-05 0.688E+01 0.167E-01 0.260E-05 .30314E-07 0.000E+00 0.571E+00 0.000E+00 0.000E+00 0.000E+00
BIGSUB   2        0  354.10671E+00 0.800E+00 0.000E+00 0.467E+01 0.335E+01 0.796E+02 0.341E-02 0.354E-02 0.000E+00 0.624E+01 0.375E-09 0.100E-08 0.100E-08 0.970E-08 0.599E-06 0.200E-08 0.624E+01 0.117E-01 0.100E-11 .34204E-09 0.000E+00 0.516E+00 0.000E+00 0.000E+00 0.000E+00
BIGSUB   3        0  354.62454E+00 0.800E+00 0.000E+00 0.469E+01 0.316E+01 0.869E+02 0.273E-04 0.295E-02 0.502E-02 0.679E+01 0.918E-10 0.305E-04 0.373E-05 0.334E-07 0.665E-06 0.268E-05 0.679E+01 0.133E-01 0.223E-05 .14690E-06 0.000E+00 0.562E+00 0.000E+00 0.000E+00 0.000E+00
BIGSUB   4        0  354.44478E+00 0.800E+00 0.000E+00 0.467E+01 0.330E+01 0.801E+02 0.261E-02 0.181E-01 0.157E-02 0.630E+01 0.349E-09 0.401E-05 0.491E-06 0.850E-07 0.318E-05 0.355E-06 0.628E+01 0.118E-01 0.700E-06 .11297E-07 0.000E+00 0.521E+00 0.000E+00 0.000E+00 0.000E+00
BIGSUB   5        0  354.17237E+00 0.800E+00 0.000E+00 0.466E+01 0.367E+01 0.628E+02 0.941E-02 0.519E+00 0.120E-02 0.523E+01 0.658E-09 0.127E-08 0.102E-08 0.140E-05 0.876E-04 0.201E-08 0.471E+01 0.881E-02 0.330E-06 .55731E-07 0.000E+00 0.432E+00 0.000E+00 0.000E+00 0.000E+00
BIGSUB   1        0  355.11943E+00 0.876E+02 0.000E+00 0.246E+01 0.243E+01 0.948E+02 0.224E+01 0.495E+02 0.599E-02 0.718E+02 0.335E+01 0.511E+01 0.627E+00 0.923E-03 0.173E-02 0.481E+00 0.223E+02 0.520E-01 0.272E-05 .97050E-01 0.677E+03 0.188E+01 0.000E+00 0.000E+00 0.000E+00
BIGSUB   2        0  355.10671E+00 0.876E+02 0.000E+00 0.246E+01 0.243E+01 0.850E+02 0.208E+00 0.524E+02 0.000E+00 0.723E+02 0.419E+01 0.432E+01 0.530E+00 0.987E-03 0.282E-02 0.409E+00 0.199E+02 0.344E-01 0.100E-11 .80337E-01 0.765E+03 0.249E+01 0.000E+00 0.000E+00 0.000E+00
BIGSUB   3        0  355.62454E+00 0.876E+02 0.000E+00 0.246E+01 0.242E+01 0.924E+02 0.202E+00 0.503E+02 0.517E-02 0.718E+02 0.686E+01 0.462E+01 0.571E+00 0.132E-02 0.137E-02 0.453E+00 0.215E+02 0.381E-01 0.233E-05 .91486E-01 0.116E+04 0.181E+01 0.000E+00 0.000E+00 0.000E+00
BIGSUB   4        0  355.44478E+00 0.876E+02 0.000E+00 0.246E+01 0.243E+01 0.855E+02 0.206E+00 0.523E+02 0.161E-02 0.723E+02 0.684E+01 0.400E+01 0.491E+00 0.122E-02 0.230E-02 0.382E+00 0.200E+02 0.347E-01 0.732E-06 .74489E-01 0.115E+04 0.232E+01 0.000E+00 0.000E+00 0.000E+00
BIGSUB   5        0  355.17237E+00 0.876E+02 0.000E+00 0.246E+01 0.244E+01 0.679E+02 0.265E+00 0.585E+02 0.123E-02 0.735E+02 0.301E+01 0.331E+01 0.406E+00 0.784E-03 0.528E-02 0.314E+00 0.151E+02 0.268E-01 0.355E-06 .61977E-01 0.558E+03 0.344E+01 0.000E+00 0.000E+00 0.000E+00
BIGSUB   1        0  356.11943E+00 0.559E+02 0.000E+00 0.302E+01 0.290E+01 0.943E+02 0.230E+01 0.244E+02 0.619E-02 0.496E+02 0.101E-05 0.174E+01 0.214E+00 0.562E-03 0.814E-03 0.164E+00 0.253E+02 0.585E-01 0.288E-05 .16792E-01 0.398E-07 0.414E+01 0.000E+00 0.000E+00 0.000E+00
BIGSUB   2        0  356.10671E+00 0.559E+02 0.000E+00 0.303E+01 0.292E+01 0.848E+02 0.106E+01 0.275E+02 0.000E+00 0.505E+02 0.375E-09 0.146E+01 0.179E+00 0.618E-03 0.157E-02 0.139E+00 0.230E+02 0.493E-01 0.100E-11 .13636E-01 0.133E-07 0.421E+01 0.000E+00 0.000E+00 0.000E+00
BIGSUB   3        0  356.62454E+00 0.559E+02 0.000E+00 0.302E+01 0.288E+01 0.926E+02 0.884E+00 0.256E+02 0.538E-02 0.503E+02 0.918E-10 0.154E+01 0.191E+00 0.857E-03 0.674E-03 0.152E+00 0.247E+02 0.527E-01 0.246E-05 .16668E-01 0.202E-07 0.419E+01 0.000E+00 0.000E+00 0.000E+00
BIGSUB   4        0  356.44478E+00 0.559E+02 0.000E+00 0.302E+01 0.291E+01 0.854E+02 0.998E+00 0.274E+02 0.167E-02 0.505E+02 0.272E-06 0.131E+01 0.161E+00 0.793E-03 0.128E-02 0.125E+00 0.231E+02 0.522E-01 0.774E-06 .12267E-01 0.277E-07 0.421E+01 0.000E+00 0.000E+00 0.000E+00
BIGSUB   5        0  356.17237E+00 0.559E+02 0.000E+00 0.303E+01 0.294E+01 0.682E+02 0.883E+00 0.334E+02 0.128E-02 0.508E+02 0.658E-09 0.113E+01 0.138E+00 0.499E-03 0.325E-02 0.107E+00 0.173E+02 0.373E-01 0.390E-06 .10624E-01 0.393E-07 0.423E+01 0.000E+00 0.000E+00 0.000E+00
BIGSUB   1        0  357.11943E+00 0.000E+00 0.000E+00 0.545E+01 0.299E+01 0.913E+02 0.499E-04 0.133E-01 0.638E-02 0.870E+01 0.208E-06 0.419E-04 0.513E-05 0.184E-06 0.315E-05 0.368E-05 0.868E+01 0.201E-01 0.301E-05 .53396E-06 0.000E+00 0.711E+00 0.000E+00 0.000E+00 0.000E+00
BIGSUB   2        0  357.10671E+00 0.000E+00 0.000E+00 0.545E+01 0.328E+01 0.816E+02 0.453E-02 0.350E-02 0.000E+00 0.790E+01 0.375E-09 0.100E-08 0.100E-08 0.841E-08 0.572E-06 0.200E-08 0.789E+01 0.169E-01 0.100E-11 .29183E-09 0.000E+00 0.645E+00 0.000E+00 0.000E+00 0.000E+00
BIGSUB   3        0  357.62454E+00 0.000E+00 0.000E+00 0.544E+01 0.297E+01 0.896E+02 0.276E-04 0.351E-02 0.556E-02 0.849E+01 0.918E-10 0.510E-04 0.624E-05 0.505E-07 0.755E-06 0.448E-05 0.848E+01 0.181E-01 0.257E-05 .31179E-06 0.000E+00 0.694E+00 0.000E+00 0.000E+00 0.000E+00
BIGSUB   4        0  357.44478E+00 0.000E+00 0.000E+00 0.545E+01 0.321E+01 0.822E+02 0.344E-02 0.230E-01 0.171E-02 0.797E+01 0.561E-07 0.112E-04 0.138E-05 0.917E-07 0.403E-05 0.988E-06 0.794E+01 0.179E-01 0.809E-06 .14635E-06 0.000E+00 0.651E+00 0.000E+00 0.000E+00 0.000E+00
BIGSUB   5        0  357.17237E+00 0.000E+00 0.000E+00 0.545E+01 0.380E+01 0.644E+02 0.125E-01 0.575E+00 0.132E-02 0.654E+01 0.658E-09 0.141E-08 0.104E-08 0.119E-05 0.941E-04 0.201E-08 0.596E+01 0.128E-01 0.420E-06 .47492E-07 0.000E+00 0.534E+00 0.000E+00 0.000E+00 0.000E+00
BIGSUB   1        0  358.11943E+00 0.000E+00 0.000E+00 0.705E+01 0.284E+01 0.885E+02 0.998E-07 0.751E-02 0.653E-02 0.300E+01 0.429E-07 0.129E-04 0.158E-05 0.104E-06 0.180E-05 0.113E-05 0.298E+01 0.690E-02 0.310E-05 .22681E-06 0.000E+00 0.245E+00 0.000E+00 0.000E+00 0.000E+00
BIGSUB   2        0  358.10671E+00 0.000E+00 0.000E+00 0.705E+01 0.299E+01 0.786E+02 0.339E-02 0.737E-05 0.000E+00 0.271E+01 0.375E-09 0.100E-08 0.100E-08 0.100E-08 0.201E-08 0.200E-08 0.271E+01 0.582E-02 0.100E-11 .44133E-13 0.000E+00 0.221E+00 0.000E+00 0.000E+00 0.000E+00
BIGSUB   3        0  358.62454E+00 0.000E+00 0.000E+00 0.704E+01 0.281E+01 0.868E+02 0.293E-07 0.508E-03 0.572E-02 0.292E+01 0.918E-10 0.517E-05 0.633E-06 0.820E-08 0.114E-06 0.455E-06 0.291E+01 0.622E-02 0.266E-05 .78640E-08 0.000E+00 0.238E+00 0.000E+00 0.000E+00 0.000E+00
BIGSUB   4        0  358.44478E+00 0.000E+00 0.000E+00 0.705E+01 0.293E+01 0.792E+02 0.257E-02 0.515E-02 0.176E-02 0.274E+01 0.118E-07 0.349E-05 0.428E-06 0.354E-07 0.998E-06 0.307E-06 0.273E+01 0.616E-02 0.835E-06 .61169E-07 0.000E+00 0.223E+00 0.000E+00 0.000E+00 0.000E+00
BIGSUB   5        0  358.17237E+00 0.000E+00 0.000E+00 0.705E+01 0.324E+01 0.612E+02 0.934E-02 0.541E-01 0.136E-02 0.211E+01 0.658E-09 0.989E-09 0.989E-09 0.112E-06 0.886E-05 0.198E-08 0.205E+01 0.441E-02 0.445E-06 .44383E-08 0.000E+00 0.172E+00 0.000E+00 0.000E+00 0.000E+00
BIGSUB   1        0  359.11943E+00 0.000E+00 0.000E+00 0.683E+01 0.219E+01 0.863E+02 0.000E+00 0.450E-02 0.667E-02 0.104E+01 0.896E-08 0.729E-05 0.892E-06 0.630E-07 0.108E-05 0.637E-06 0.102E+01 0.237E-02 0.318E-05 .92031E-07 0.000E+00 0.853E-01 0.000E+00 0.000E+00 0.000E+00
BIGSUB   2        0  359.10671E+00 0.000E+00 0.000E+00 0.684E+01 0.235E+01 0.762E+02 0.191E-02 0.100E-05 0.000E+00 0.932E+00 0.375E-09 0.100E-08 0.100E-08 0.100E-08 0.100E-08 0.200E-08 0.931E+00 0.200E-02 0.100E-11 .58237E-17 0.000E+00 0.764E-01 0.000E+00 0.000E+00 0.000E+00
BIGSUB   3        0  359.62454E+00 0.000E+00 0.000E+00 0.683E+01 0.217E+01 0.846E+02 0.000E+00 0.975E-04 0.585E-02 0.101E+01 0.918E-10 0.813E-06 0.100E-06 0.237E-08 0.230E-07 0.730E-07 0.100E+01 0.214E-02 0.272E-05 .11709E-09 0.000E+00 0.826E-01 0.000E+00 0.000E+00 0.000E+00
BIGSUB   4        0  359.44478E+00 0.000E+00 0.000E+00 0.684E+01 0.229E+01 0.769E+02 0.145E-02 0.177E-02 0.179E-02 0.942E+00 0.270E-08 0.196E-05 0.240E-06 0.188E-07 0.383E-06 0.173E-06 0.937E+00 0.211E-02 0.854E-06 .24758E-07 0.000E+00 0.772E-01 0.000E+00 0.000E+00 0.000E+00
BIGSUB   5        0  359.17237E+00 0.000E+00 0.000E+00 0.684E+01 0.263E+01 0.585E+02 0.526E-02 0.552E-02 0.152E-02 0.713E+00 0.658E-09 0.989E-09 0.989E-09 0.122E-07 0.904E-06 0.198E-08 0.705E+00 0.152E-02 0.473E-06 .43489E-09 0.000E+00 0.585E-01 0.000E+00 0.000E+00 0.000E+00
BIGSUB   1        0  360.11943E+00 0.239E+02 0.000E+00 0.383E+01 0.340E+01 0.931E+02 0.167E-01 0.309E+01 0.681E-02 0.104E+02 0.128E+00 0.195E+00 0.239E-01 0.280E-03 0.100E-03 0.184E-01 0.731E+01 0.339E-02 0.324E-05 .68688E-03 0.126E+02 0.617E+00 0.000E+00 0.000E+00 0.000E+00
BIGSUB   2        0  360.10671E+00 0.239E+02 0.000E+00 0.383E+01 0.344E+01 0.828E+02 0.389E-02 0.400E+01 0.000E+00 0.108E+02 0.164E+00 0.162E+00 0.199E-01 0.307E-03 0.281E-03 0.154E-01 0.678E+01 0.194E-02 0.100E-11 .53185E-03 0.141E+02 0.680E+00 0.000E+00 0.000E+00 0.000E+00
BIGSUB   3        0  360.62454E+00 0.239E+02 0.000E+00 0.384E+01 0.337E+01 0.907E+02 0.148E-01 0.364E+01 0.599E-02 0.111E+02 0.303E+00 0.197E+00 0.245E-01 0.486E-03 0.986E-04 0.196E-01 0.742E+01 0.214E-02 0.278E-05 .10374E-02 0.283E+02 0.626E+00 0.000E+00 0.000E+00 0.000E+00
BIGSUB   4        0  360.44478E+00 0.239E+02 0.000E+00 0.383E+01 0.341E+01 0.834E+02 0.755E-02 0.406E+01 0.183E-02 0.109E+02 0.349E+00 0.145E+00 0.177E-01 0.462E-03 0.224E-03 0.138E-01 0.685E+01 0.204E-02 0.872E-06 .48358E-03 0.366E+02 0.661E+00 0.000E+00 0.000E+00 0.000E+00
BIGSUB   5        0  360.17237E+00 0.239E+02 0.000E+00 0.383E+01 0.353E+01 0.658E+02 0.131E-01 0.551E+01 0.167E-02 0.106E+02 0.118E+00 0.126E+00 0.154E-01 0.274E-03 0.620E-03 0.119E-01 0.513E+01 0.149E-02 0.499E-06 .43424E-03 0.104E+02 0.721E+00 0.000E+00 0.000E+00 0.000E+00
BIGSUB   1        0  361.11943E+00 0.460E+01 0.000E+00 0.289E+01 0.281E+01 0.933E+02 0.202E-02 0.238E-02 0.693E-02 0.358E+01 0.536E-09 0.263E-05 0.323E-06 0.881E-07 0.567E-06 0.232E-06 0.356E+01 0.130E-02 0.329E-05 .15920E-07 0.000E+00 0.296E+00 0.000E+00 0.000E+00 0.000E+00
BIGSUB   2        0  361.10671E+00 0.460E+01 0.000E+00 0.289E+01 0.280E+01 0.829E+02 0.358E-02 0.181E+00 0.000E+00 0.354E+01 0.375E-09 0.100E-08 0.100E-08 0.624E-05 0.297E-04 0.200E-08 0.336E+01 0.777E-03 0.100E-11 .24909E-06 0.000E+00 0.293E+00 0.000E+00 0.000E+00 0.000E+00
BIGSUB   3        0  361.62454E+00 0.460E+01 0.000E+00 0.289E+01 0.277E+01 0.908E+02 0.172E-02 0.107E-02 0.612E-02 0.372E+01 0.918E-10 0.326E-05 0.402E-06 0.941E-06 0.774E-07 0.289E-06 0.371E+01 0.881E-03 0.282E-05 .26637E-09 0.163E-09 0.308E+00 0.000E+00 0.000E+00 0.000E+00
BIGSUB   4        0  361.44478E+00 0.460E+01 0.000E+00 0.289E+01 0.278E+01 0.835E+02 0.335E-02 0.150E+00 0.186E-02 0.356E+01 0.440E-09 0.716E-06 0.105E-06 0.107E-04 0.241E-04 0.729E-07 0.341E+01 0.841E-03 0.884E-06 .21631E-06 0.233E-09 0.295E+00 0.000E+00 0.000E+00 0.000E+00
BIGSUB   5        0  361.17237E+00 0.460E+01 0.000E+00 0.289E+01 0.282E+01 0.659E+02 0.102E-01 0.586E+00 0.180E-02 0.313E+01 0.658E-09 0.106E-08 0.997E-09 0.182E-04 0.962E-04 0.198E-08 0.254E+01 0.597E-03 0.521E-06 .72730E-06 0.000E+00 0.259E+00 0.000E+00 0.000E+00 0.000E+00
BIGSUB   1        0  362.11943E+00 0.147E+02 0.000E+00 0.389E+01 0.344E+01 0.938E+02 0.292E+00 0.648E+00 0.706E-02 0.833E+01 0.208E-01 0.336E-01 0.412E-02 0.448E-04 0.210E-04 0.317E-02 0.767E+01 0.981E-02 0.334E-05 .81110E-05 0.568E+00 0.628E+00 0.000E+00 0.000E+00 0.000E+00
BIGSUB   2        0  362.10671E+00 0.147E+02 0.000E+00 0.388E+01 0.348E+01 0.836E+02 0.429E-02 0.176E+01 0.000E+00 0.868E+01 0.255E-01 0.268E-01 0.329E-02 0.571E-04 0.213E-03 0.254E-02 0.692E+01 0.706E-02 0.100E-11 .61785E-05 0.602E+00 0.664E+00 0.000E+00 0.000E+00 0.000E+00
BIGSUB   3        0  362.62454E+00 0.147E+02 0.000E+00 0.389E+01 0.341E+01 0.915E+02 0.179E-01 0.865E+00 0.624E-02 0.852E+01 0.563E-01 0.398E-01 0.495E-02 0.999E-04 0.247E-04 0.398E-02 0.765E+01 0.796E-02 0.286E-05 .32310E-04 0.244E+01 0.625E+00 0.000E+00 0.000E+00 0.000E+00
BIGSUB   4        0  362.44478E+00 0.147E+02 0.000E+00 0.389E+01 0.346E+01 0.842E+02 0.846E-02 0.166E+01 0.190E-02 0.867E+01 0.811E-01 0.239E-01 0.294E-02 0.106E-03 0.169E-03 0.229E-02 0.701E+01 0.721E-02 0.897E-06 .64296E-05 0.588E+01 0.650E+00 0.000E+00 0.000E+00 0.000E+00
BIGSUB   5        0  362.17237E+00 0.147E+02 0.000E+00 0.388E+01 0.358E+01 0.666E+02 0.234E-01 0.368E+01 0.194E-02 0.892E+01 0.185E-01 0.211E-01 0.258E-02 0.643E-04 0.548E-03 0.199E-02 0.524E+01 0.536E-02 0.546E-06 .70416E-05 0.455E+00 0.693E+00 0.000E+00 0.000E+00 0.000E+00
BIGSUB   1        0  363.11943E+00 0.840E+01 0.000E+00 0.423E+01 0.365E+01 0.936E+02 0.167E+00 0.991E-03 0.718E-02 0.580E+01 0.197E-09 0.958E-06 0.118E-06 0.368E-07 0.237E-06 0.855E-07 0.578E+01 0.733E-02 0.337E-05 .16411E-08 0.000E+00 0.474E+00 0.000E+00 0.000E+00 0.000E+00
BIGSUB   2        0  363.10671E+00 0.840E+01 0.000E+00 0.422E+01 0.371E+01 0.834E+02 0.427E-02 0.546E+00 0.000E+00 0.574E+01 0.375E-09 0.100E-08 0.100E-08 0.731E-05 0.902E-04 0.200E-08 0.519E+01 0.468E-02 0.100E-11 .29221E-06 0.000E+00 0.469E+00 0.000E+00 0.000E+00 0.000E+00
BIGSUB   3        0  363.62454E+00 0.840E+01 0.000E+00 0.424E+01 0.363E+01 0.914E+02 0.780E-02 0.303E-01 0.636E-02 0.584E+01 0.918E-10 0.672E-03 0.847E-04 0.808E-05 0.100E-05 0.698E-04 0.580E+01 0.548E-02 0.289E-05 .18024E-07 0.110E-08 0.477E+00 0.000E+00 0.000E+00 0.000E+00
BIGSUB   4        0  363.44478E+00 0.840E+01 0.000E+00 0.422E+01 0.369E+01 0.840E+02 0.559E-02 0.477E+00 0.193E-02 0.576E+01 0.349E-09 0.104E-04 0.143E-05 0.260E-04 0.713E-04 0.115E-05 0.528E+01 0.482E-02 0.907E-06 .30137E-06 0.157E-08 0.470E+00 0.000E+00 0.000E+00 0.000E+00
BIGSUB   5        0  363.17237E+00 0.840E+01 0.000E+00 0.422E+01 0.383E+01 0.664E+02 0.171E-01 0.156E+01 0.207E-02 0.550E+01 0.658E-09 0.249E-04 0.305E-05 0.205E-04 0.257E-03 0.232E-05 0.393E+01 0.357E-02 0.570E-06 .81600E-06 0.767E-09 0.449E+00 0.000E+00 0.000E+00 0.000E+00
BIGSUB   1        0  364.11943E+00 0.300E+00 0.000E+00 0.571E+01 0.317E+01 0.907E+02 0.852E-05 0.584E-03 0.728E-02 0.200E+01 0.197E-09 0.578E-06 0.715E-07 0.220E-07 0.141E-06 0.523E-07 0.199E+01 0.252E-02 0.339E-05 .41563E-09 0.000E+00 0.163E+00 0.000E+00 0.000E+00 0.000E+00
BIGSUB   2        0  364.10671E+00 0.300E+00 0.000E+00 0.570E+01 0.342E+01 0.803E+02 0.343E-02 0.315E-03 0.000E+00 0.179E+01 0.375E-09 0.100E-08 0.100E-08 0.514E-08 0.527E-07 0.200E-08 0.178E+01 0.161E-02 0.100E-11 .12735E-09 0.000E+00 0.146E+00 0.000E+00 0.000E+00 0.000E+00
BIGSUB   3        0  364.62454E+00 0.300E+00 0.000E+00 0.573E+01 0.314E+01 0.885E+02 0.470E-05 0.131E-04 0.647E-02 0.200E+01 0.918E-10 0.180E-08 0.110E-08 0.160E-08 0.374E-08 0.207E-08 0.199E+01 0.188E-02 0.290E-05 .15805E-14 0.000E+00 0.164E+00 0.000E+00 0.000E+00 0.000E+00
BIGSUB   4        0  364.44478E+00 0.300E+00 0.000E+00 0.571E+01 0.335E+01 0.810E+02 0.268E-02 0.205E-02 0.196E-02 0.182E+01 0.349E-09 0.156E-06 0.199E-07 0.308E-07 0.351E-06 0.155E-07 0.181E+01 0.165E-02 0.911E-06 .10744E-08 0.000E+00 0.148E+00 0.000E+00 0.000E+00 0.000E+00
BIGSUB   5        0  364.17237E+00 0.300E+00 0.000E+00 0.570E+01 0.387E+01 0.628E+02 0.948E-02 0.543E-01 0.219E-02 0.141E+01 0.658E-09 0.989E-09 0.989E-09 0.684E-06 0.896E-05 0.198E-08 0.135E+01 0.123E-02 0.588E-06 .27072E-07 0.000E+00 0.115E+00 0.000E+00 0.000E+00 0.000E+00
BIGSUB   1        0  365.11943E+00 0.740E+01 0.000E+00 0.349E+01 0.302E+01 0.924E+02 0.143E-02 0.352E-03 0.736E-02 0.246E+01 0.197E-09 0.349E-06 0.435E-07 0.137E-07 0.852E-07 0.323E-07 0.245E+01 0.965E-03 0.338E-05 .99340E-10 0.000E+00 0.205E+00 0.000E+00 0.000E+00 0.000E+00
BIGSUB   2        0  365.10671E+00 0.740E+01 0.000E+00 0.349E+01 0.299E+01 0.816E+02 0.237E-02 0.317E+00 0.000E+00 0.272E+01 0.375E-09 0.100E-08 0.100E-08 0.944E-05 0.526E-04 0.200E-08 0.241E+01 0.671E-03 0.100E-11 .37714E-06 0.000E+00 0.226E+00 0.000E+00 0.000E+00 0.000E+00
BIGSUB   3        0  365.62454E+00 0.740E+01 0.000E+00 0.349E+01 0.290E+01 0.899E+02 0.121E-02 0.733E-02 0.655E-02 0.273E+01 0.117E-02 0.785E-04 0.992E-05 0.357E-05 0.108E-06 0.818E-05 0.272E+01 0.795E-03 0.290E-05 .93585E-08 0.706E-01 0.227E+00 0.000E+00 0.000E+00 0.000E+00
BIGSUB   4        0  365.44478E+00 0.740E+01 0.000E+00 0.349E+01 0.296E+01 0.823E+02 0.223E-02 0.282E+00 0.198E-02 0.274E+01 0.612E-02 0.139E-06 0.115E-06 0.243E-04 0.420E-04 0.775E-07 0.246E+01 0.707E-03 0.910E-06 .36580E-06 0.390E+00 0.226E+00 0.000E+00 0.000E+00 0.000E+00
BIGSUB   5        0  365.17237E+00 0.740E+01 0.000E+00 0.349E+01 0.311E+01 0.641E+02 0.655E-02 0.851E+00 0.229E-02 0.268E+01 0.658E-09 0.989E-09 0.989E-09 0.253E-04 0.142E-03 0.198E-08 0.182E+01 0.513E-03 0.602E-06 .10092E-05 0.000E+00 0.222E+00 0.000E+00 0.000E+00 0.000E+00
BIGSUB   1        0  366.11943E+00 0.399E+02 0.000E+00 0.181E+01 0.179E+01 0.954E+02 0.132E+01 0.124E+02 0.749E-02 0.273E+02 0.348E+00 0.583E+00 0.715E-01 0.234E-03 0.393E-03 0.549E-01 0.148E+02 0.282E-01 0.343E-05 .48464E-02 0.579E+02 0.125E+01 0.000E+00 0.000E+00 0.000E+00
BIGSUB   2        0  366.10671E+00 0.399E+02 0.000E+00 0.182E+01 0.180E+01 0.856E+02 0.335E+00 0.148E+02 0.000E+00 0.281E+02 0.442E+00 0.479E+00 0.587E-01 0.258E-03 0.934E-03 0.454E-01 0.133E+02 0.212E-01 0.100E-11 .38547E-02 0.659E+02 0.146E+01 0.000E+00 0.000E+00 0.000E+00
BIGSUB   3        0  366.62454E+00 0.399E+02 0.000E+00 0.181E+01 0.178E+01 0.939E+02 0.300E+00 0.133E+02 0.668E-02 0.278E+02 0.754E+00 0.529E+00 0.656E-01 0.345E-03 0.332E-03 0.524E-01 0.144E+02 0.229E-01 0.294E-05 .52409E-02 0.109E+03 0.122E+01 0.000E+00 0.000E+00 0.000E+00
BIGSUB   4        0  366.44478E+00 0.399E+02 0.000E+00 0.182E+01 0.180E+01 0.862E+02 0.323E+00 0.147E+02 0.201E-02 0.281E+02 0.755E+00 0.425E+00 0.522E-01 0.328E-03 0.752E-03 0.407E-01 0.134E+02 0.217E-01 0.921E-06 .34348E-02 0.111E+03 0.139E+01 0.000E+00 0.000E+00 0.000E+00
BIGSUB   5        0  366.17237E+00 0.399E+02 0.000E+00 0.182E+01 0.181E+01 0.683E+02 0.305E+00 0.189E+02 0.242E-02 0.290E+02 0.318E+00 0.369E+00 0.453E-01 0.221E-03 0.199E-02 0.350E-01 0.101E+02 0.161E-01 0.629E-06 .30157E-02 0.481E+02 0.174E+01 0.000E+00 0.000E+00 0.000E+00
