1
    SWAT Dec 23 2016    VER 2016/Rev 664                                                                 0/ 0/   0      0: 0: 0

    General Input/Output section (file.cio):                                        
    2/12/2020 14:36:12 QSWAT Workflow v1.5.2                                        
                                                                                    


       RCH      GIS   MON     AREAkm2  FLOW_INcms FLOW_OUTcms     EVAPcms    TLOSScms  SED_INtons SED_OUTtons SEDCONCmg/L   ORGN_INkg  ORGN_OUTkg   ORGP_INkg  ORGP_OUTkg    NO3_INkg   NO3_OUTkg    NH4_INkg   NH4_OUTkg    NO2_INkg   NO2_OUTkg   MINP_INkg  MINP_OUTkg   CHLA_INkg  CHLA_OUTkg   CBOD_INkg  CBOD_OUTkg  DISOX_INkg DISOX_OUTkg SOLPST_INmgSOLPST_OUTmg SORPST_INmgSORPST_OUTmg  REACTPSTmg    VOLPSTmg  SETTLPSTmgRESUSP_PSTmgDIFFUSEPSTmgREACBEDPSTmg   BURYPSTmg   BED_PSTmg BACTP_OUTctBACTLP_OUTct  CMETAL#1kg  CMETAL#2kg  CMETAL#3kg     TOT Nkg     TOT Pkg NO3ConcMg/l    WTMPdegc
REACH    1        0     1  0.1194E+00  0.2031E-01  0.2031E-01  0.9263E-06  0.0000E+00  0.2970E+01  0.2970E+01  0.1692E+04  0.7713E+01  0.7712E+01  0.1695E+01  0.1695E+01  0.1534E+00  0.1534E+00  0.0000E+00  0.1135E-02  0.0000E+00  0.0000E+00  0.3978E-02  0.4388E-02  0.2675E-01  0.2631E-01  0.2669E+03  0.2665E+03  0.1040E+02  0.1625E+00  0.0000E+00  0.0000E+00  0.0000E+00  0.0000E+00  0.0000E+00  0.0000E+00  0.0000E+00  0.0000E+00  0.0000E+00  0.0000E+00  0.0000E+00  0.0000E+00  0.0000E+00  0.0000E+00  0.0000E+00  0.0000E+00  0.0000E+00  0.7866E+01  0.1699E+01  0.8742E-01  0.2412E+02
REACH    2        0     1  0.1067E+00  0.1896E-01  0.1896E-01  0.2190E-06  0.0000E+00  0.3511E+01  0.3511E+01  0.2143E+04  0.7158E+01  0.7158E+01  0.1576E+01  0.1576E+01  0.9560E-01  0.9559E-01  0.0000E+00  0.3156E-03  0.0000E+00  0.0000E+00  0.7361E-02  0.7476E-02  0.2291E-01  0.2282E-01  0.2720E+03  0.2719E+03  0.1046E+02  0.1517E+00  0.0000E+00  0.0000E+00  0.0000E+00  0.0000E+00  0.0000E+00  0.0000E+00  0.0000E+00  0.0000E+00  0.0000E+00  0.0000E+00  0.0000E+00  0.0000E+00  0.0000E+00  0.0000E+00  0.0000E+00  0.0000E+00  0.0000E+00  0.7254E+01  0.1583E+01  0.5835E-01  0.2412E+02
REACH    3        0     1  0.6245E+00  0.1105E+00  0.1104E+00  0.2479E-04  0.0000E+00  0.3087E+02  0.3087E+02  0.3235E+04  0.4803E+02  0.4795E+02  0.1061E+02  0.1059E+02  0.8262E+00  0.8258E+00  0.0000E+00  0.6004E-01  0.0000E+00  0.0000E+00  0.4235E-01  0.6426E-01  0.1919E+00  0.1737E+00  0.2278E+04  0.2251E+04  0.5504E+02  0.8836E+00  0.0000E+00  0.0000E+00  0.0000E+00  0.0000E+00  0.0000E+00  0.0000E+00  0.0000E+00  0.0000E+00  0.0000E+00  0.0000E+00  0.0000E+00  0.0000E+00  0.0000E+00  0.0000E+00  0.0000E+00  0.0000E+00  0.0000E+00  0.4884E+02  0.1065E+02  0.8655E-01  0.2412E+02
REACH    4        0     1  0.1189E+01  0.2100E+00  0.2100E+00  0.2528E-04  0.0000E+00  0.6081E+02  0.5365E+01  0.2956E+03  0.9678E+02  0.9668E+02  0.2136E+02  0.2133E+02  0.1397E+01  0.1397E+01  0.6117E-01  0.1397E+00  0.0000E+00  0.1129E-03  0.9633E-01  0.1250E+00  0.4706E+00  0.4454E+00  0.4988E+04  0.4949E+04  0.4318E+02  0.1681E+01  0.0000E+00  0.0000E+00  0.0000E+00  0.0000E+00  0.0000E+00  0.0000E+00  0.0000E+00  0.0000E+00  0.0000E+00  0.0000E+00  0.0000E+00  0.0000E+00  0.0000E+00  0.0000E+00  0.0000E+00  0.0000E+00  0.0000E+00  0.9822E+02  0.2145E+02  0.7697E-01  0.2412E+02
REACH    5        0     1  0.1468E+01  0.2611E+00  0.2611E+00  0.1616E-04  0.0000E+00  0.1293E+02  0.3908E+01  0.1732E+03  0.1124E+03  0.1123E+03  0.2479E+02  0.2476E+02  0.1611E+01  0.1610E+01  0.1400E+00  0.2166E+00  0.1129E-03  0.2356E-03  0.1557E+00  0.1837E+00  0.4965E+00  0.4829E+00  0.5542E+04  0.5505E+04  0.2104E+02  0.2089E+01  0.0000E+00  0.0000E+00  0.0000E+00  0.0000E+00  0.0000E+00  0.0000E+00  0.0000E+00  0.0000E+00  0.0000E+00  0.0000E+00  0.0000E+00  0.0000E+00  0.0000E+00  0.0000E+00  0.0000E+00  0.0000E+00  0.0000E+00  0.1141E+03  0.2494E+02  0.7138E-01  0.2412E+02
REACH    1        0     2  0.1194E+00  0.5030E-02  0.5029E-02  0.1130E-05  0.0000E+00  0.2356E-08  0.2356E-08  0.5423E-05  0.5287E-04  0.5285E-04  0.1141E-04  0.1140E-04  0.5125E-01  0.5124E-01  0.0000E+00  0.1435E-04  0.0000E+00  0.0000E+00  0.3935E-05  0.5372E-05  0.4333E-08  0.0000E+00  0.0000E+00  0.0000E+00  0.3607E+01  0.3512E+01  0.0000E+00  0.0000E+00  0.0000E+00  0.0000E+00  0.0000E+00  0.0000E+00  0.0000E+00  0.0000E+00  0.0000E+00  0.0000E+00  0.0000E+00  0.0000E+00  0.0000E+00  0.0000E+00  0.0000E+00  0.0000E+00  0.0000E+00  0.5130E-01  0.1677E-04  0.1179E+00  0.2476E+02
REACH    2        0     2  0.1067E+00  0.3972E-02  0.3972E-02  0.2763E-06  0.0000E+00  0.3998E-08  0.3998E-08  0.1165E-04  0.1067E-07  0.0000E+00  0.3201E-07  0.0000E+00  0.3145E-01  0.3144E-01  0.0000E+00  0.3249E-05  0.0000E+00  0.0000E+00  0.2615E-05  0.2940E-05  0.3168E-08  0.0000E+00  0.0000E+00  0.0000E+00  0.2848E+01  0.2774E+01  0.0000E+00  0.0000E+00  0.0000E+00  0.0000E+00  0.0000E+00  0.0000E+00  0.0000E+00  0.0000E+00  0.0000E+00  0.0000E+00  0.0000E+00  0.0000E+00  0.0000E+00  0.0000E+00  0.0000E+00  0.0000E+00  0.0000E+00  0.3145E-01  0.2940E-05  0.9163E-01  0.2476E+02
REACH    3        0     2  0.6245E+00  0.2556E-01  0.2552E-01  0.3501E-04  0.0000E+00  0.5731E-08  0.5731E-08  0.2599E-05  0.4346E-03  0.4327E-03  0.9368E-04  0.9311E-04  0.2610E+00  0.2606E+00  0.0000E+00  0.4965E-03  0.0000E+00  0.0000E+00  0.9207E-05  0.2758E-04  0.4251E-07  0.0000E+00  0.0000E+00  0.0000E+00  0.1833E+02  0.1783E+02  0.0000E+00  0.0000E+00  0.0000E+00  0.0000E+00  0.0000E+00  0.0000E+00  0.0000E+00  0.0000E+00  0.0000E+00  0.0000E+00  0.0000E+00  0.0000E+00  0.0000E+00  0.0000E+00  0.0000E+00  0.0000E+00  0.0000E+00  0.2615E+00  0.1207E-03  0.1182E+00  0.2476E+02
REACH    4        0     2  0.1189E+01  0.4730E-01  0.4726E-01  0.3645E-04  0.0000E+00  0.2360E-07  0.6885E+00  0.1686E+03  0.5376E-03  0.5362E-03  0.1158E-03  0.1154E-03  0.4480E+00  0.4476E+00  0.5108E-03  0.1042E-02  0.0000E+00  0.0000E+00  0.8655E-04  0.1401E-03  0.1851E-06  0.0000E+00  0.0000E+00  0.0000E+00  0.3334E+02  0.3300E+02  0.0000E+00  0.0000E+00  0.0000E+00  0.0000E+00  0.0000E+00  0.0000E+00  0.0000E+00  0.0000E+00  0.0000E+00  0.0000E+00  0.0000E+00  0.0000E+00  0.0000E+00  0.0000E+00  0.0000E+00  0.0000E+00  0.0000E+00  0.4492E+00  0.2555E-03  0.1096E+00  0.2476E+02
REACH    5        0     2  0.1468E+01  0.5648E-01  0.5646E-01  0.2200E-04  0.0000E+00  0.6885E+00  0.4937E+00  0.1012E+03  0.5362E-03  0.5353E-03  0.1155E-03  0.1152E-03  0.5179E+00  0.5177E+00  0.1045E-02  0.1356E-02  0.0000E+00  0.0000E+00  0.7499E-03  0.7813E-03  0.8579E-06  0.7647E-06  0.0000E+00  0.0000E+00  0.3954E+02  0.3943E+02  0.0000E+00  0.0000E+00  0.0000E+00  0.0000E+00  0.0000E+00  0.0000E+00  0.0000E+00  0.0000E+00  0.0000E+00  0.0000E+00  0.0000E+00  0.0000E+00  0.0000E+00  0.0000E+00  0.0000E+00  0.0000E+00  0.0000E+00  0.5196E+00  0.8964E-03  0.1061E+00  0.2476E+02
REACH    1        0     3  0.1194E+00  0.1114E-01  0.1114E-01  0.1620E-05  0.0000E+00  0.4598E+00  0.4598E+00  0.4778E+03  0.1197E+01  0.1197E+01  0.2631E+00  0.2630E+00  0.1219E+00  0.1219E+00  0.0000E+00  0.2437E-03  0.0000E+00  0.0000E+00  0.6317E-03  0.7165E-03  0.3564E-03  0.3465E-03  0.1222E+02  0.1219E+02  0.7230E+01  0.5677E+00  0.0000E+00  0.0000E+00  0.0000E+00  0.0000E+00  0.0000E+00  0.0000E+00  0.0000E+00  0.0000E+00  0.0000E+00  0.0000E+00  0.0000E+00  0.0000E+00  0.0000E+00  0.0000E+00  0.0000E+00  0.0000E+00  0.0000E+00  0.1319E+01  0.2637E+00  0.1267E+00  0.2529E+02
REACH    2        0     3  0.1067E+00  0.1043E-01  0.1043E-01  0.3890E-06  0.0000E+00  0.5159E+00  0.5159E+00  0.5724E+03  0.1053E+01  0.1053E+01  0.2318E+00  0.2318E+00  0.9738E-01  0.9738E-01  0.0000E+00  0.6785E-04  0.0000E+00  0.0000E+00  0.2759E-02  0.2783E-02  0.2619E-03  0.2601E-03  0.1111E+02  0.1110E+02  0.6913E+01  0.5694E+00  0.0000E+00  0.0000E+00  0.0000E+00  0.0000E+00  0.0000E+00  0.0000E+00  0.0000E+00  0.0000E+00  0.0000E+00  0.0000E+00  0.0000E+00  0.0000E+00  0.0000E+00  0.0000E+00  0.0000E+00  0.0000E+00  0.0000E+00  0.1150E+01  0.2346E+00  0.1080E+00  0.2529E+02
REACH    3        0     3  0.6245E+00  0.6065E-01  0.6060E-01  0.4492E-04  0.0000E+00  0.4974E+01  0.4974E+01  0.9500E+03  0.7422E+01  0.7403E+01  0.1642E+01  0.1636E+01  0.7753E+00  0.7748E+00  0.0000E+00  0.1159E-01  0.0000E+00  0.0000E+00  0.9498E-02  0.1362E-01  0.1023E-01  0.8539E-02  0.1648E+03  0.1623E+03  0.3894E+02  0.5315E+00  0.0000E+00  0.0000E+00  0.0000E+00  0.0000E+00  0.0000E+00  0.0000E+00  0.0000E+00  0.0000E+00  0.0000E+00  0.0000E+00  0.0000E+00  0.0000E+00  0.0000E+00  0.0000E+00  0.0000E+00  0.0000E+00  0.0000E+00  0.8190E+01  0.1650E+01  0.1480E+00  0.2529E+02
REACH    4        0     3  0.1189E+01  0.1153E+00  0.1152E+00  0.4765E-04  0.0000E+00  0.1104E+02  0.2354E+01  0.2365E+03  0.1595E+02  0.1592E+02  0.3524E+01  0.3515E+01  0.1318E+01  0.1317E+01  0.1184E-01  0.2934E-01  0.0000E+00  0.3268E-04  0.2422E-01  0.3051E-01  0.4294E-01  0.3885E-01  0.5497E+03  0.5439E+03  0.2930E+02  0.9281E+00  0.0000E+00  0.0000E+00  0.0000E+00  0.0000E+00  0.0000E+00  0.0000E+00  0.0000E+00  0.0000E+00  0.0000E+00  0.0000E+00  0.0000E+00  0.0000E+00  0.0000E+00  0.0000E+00  0.0000E+00  0.0000E+00  0.0000E+00  0.1727E+02  0.3546E+01  0.1323E+00  0.2529E+02
REACH    5        0     3  0.1468E+01  0.1430E+00  0.1430E+00  0.3013E-04  0.0000E+00  0.3469E+01  0.1642E+01  0.1329E+03  0.1825E+02  0.1822E+02  0.4028E+01  0.4020E+01  0.1534E+01  0.1534E+01  0.2940E-01  0.4677E-01  0.3268E-04  0.7335E-04  0.4397E-01  0.5027E-01  0.3953E-01  0.3763E-01  0.5686E+03  0.5634E+03  0.1321E+02  0.1156E+01  0.0000E+00  0.0000E+00  0.0000E+00  0.0000E+00  0.0000E+00  0.0000E+00  0.0000E+00  0.0000E+00  0.0000E+00  0.0000E+00  0.0000E+00  0.0000E+00  0.0000E+00  0.0000E+00  0.0000E+00  0.0000E+00  0.0000E+00  0.1980E+02  0.4070E+01  0.1241E+00  0.2529E+02
REACH    1        0     4  0.1194E+00  0.6020E-02  0.6018E-02  0.1663E-05  0.0000E+00  0.2356E-08  0.2356E-08  0.4531E-05  0.1079E-06  0.0000E+00  0.5641E-07  0.0000E+00  0.5091E-01  0.5089E-01  0.0000E+00  0.1517E-04  0.0000E+00  0.0000E+00  0.1858E-05  0.3374E-05  0.2328E-09  0.0000E+00  0.0000E+00  0.0000E+00  0.4255E+01  0.4137E+01  0.0000E+00  0.0000E+00  0.0000E+00  0.0000E+00  0.0000E+00  0.0000E+00  0.0000E+00  0.0000E+00  0.0000E+00  0.0000E+00  0.0000E+00  0.0000E+00  0.0000E+00  0.0000E+00  0.0000E+00  0.0000E+00  0.0000E+00  0.5091E-01  0.3374E-05  0.9788E-01  0.2555E+02
REACH    2        0     4  0.1067E+00  0.5254E-02  0.5253E-02  0.4061E-06  0.0000E+00  0.3998E-08  0.3998E-08  0.8809E-05  0.1067E-07  0.0000E+00  0.3201E-07  0.0000E+00  0.3882E-01  0.3882E-01  0.0000E+00  0.3437E-05  0.0000E+00  0.0000E+00  0.5848E-03  0.5851E-03  0.4416E-05  0.4363E-05  0.0000E+00  0.0000E+00  0.3713E+01  0.3611E+01  0.0000E+00  0.0000E+00  0.0000E+00  0.0000E+00  0.0000E+00  0.0000E+00  0.0000E+00  0.0000E+00  0.0000E+00  0.0000E+00  0.0000E+00  0.0000E+00  0.0000E+00  0.0000E+00  0.0000E+00  0.0000E+00  0.0000E+00  0.3882E-01  0.5851E-03  0.8553E-01  0.2555E+02
REACH    3        0     4  0.6245E+00  0.3221E-01  0.3216E-01  0.5161E-04  0.0000E+00  0.5731E-08  0.5731E-08  0.2063E-05  0.5488E-01  0.5466E-01  0.1221E-01  0.1215E-01  0.3198E+00  0.3193E+00  0.0000E+00  0.6369E-03  0.0000E+00  0.0000E+00  0.1325E-04  0.3970E-04  0.7112E-04  0.4975E-04  0.3716E-07  0.0000E+00  0.2276E+02  0.2211E+02  0.0000E+00  0.0000E+00  0.0000E+00  0.0000E+00  0.0000E+00  0.0000E+00  0.0000E+00  0.0000E+00  0.0000E+00  0.0000E+00  0.0000E+00  0.0000E+00  0.0000E+00  0.0000E+00  0.0000E+00  0.0000E+00  0.0000E+00  0.3746E+00  0.1219E-01  0.1149E+00  0.2555E+02
REACH    4        0     4  0.1189E+01  0.6022E-01  0.6016E-01  0.5358E-04  0.0000E+00  0.2360E-07  0.1116E+01  0.2147E+03  0.2718E+00  0.2711E+00  0.6047E-01  0.6028E-01  0.5387E+00  0.5382E+00  0.6521E-03  0.1535E-02  0.0000E+00  0.0000E+00  0.2041E-02  0.2215E-02  0.3525E-03  0.2916E-03  0.3794E-07  0.0000E+00  0.4182E+02  0.4136E+02  0.0000E+00  0.0000E+00  0.0000E+00  0.0000E+00  0.0000E+00  0.0000E+00  0.0000E+00  0.0000E+00  0.0000E+00  0.0000E+00  0.0000E+00  0.0000E+00  0.0000E+00  0.0000E+00  0.0000E+00  0.0000E+00  0.0000E+00  0.8109E+00  0.6249E-01  0.1035E+00  0.2555E+02
REACH    5        0     4  0.1468E+01  0.7319E-01  0.7316E-01  0.3338E-04  0.0000E+00  0.1116E+01  0.6787E+00  0.1074E+03  0.2711E+00  0.2706E+00  0.6028E-01  0.6012E-01  0.6250E+00  0.6247E+00  0.1538E-02  0.2188E-02  0.0000E+00  0.0000E+00  0.5631E-02  0.5780E-02  0.3159E-03  0.2881E-03  0.0000E+00  0.0000E+00  0.5046E+02  0.5029E+02  0.0000E+00  0.0000E+00  0.0000E+00  0.0000E+00  0.0000E+00  0.0000E+00  0.0000E+00  0.0000E+00  0.0000E+00  0.0000E+00  0.0000E+00  0.0000E+00  0.0000E+00  0.0000E+00  0.0000E+00  0.0000E+00  0.0000E+00  0.8975E+00  0.6590E-01  0.9884E-01  0.2555E+02
REACH    1        0     5  0.1194E+00  0.2140E-01  0.2140E-01  0.2279E-05  0.0000E+00  0.5403E+01  0.5403E+01  0.2922E+04  0.1197E+02  0.1197E+02  0.2631E+01  0.2630E+01  0.2082E+00  0.2082E+00  0.0000E+00  0.1737E-02  0.0000E+00  0.0000E+00  0.3820E-02  0.4451E-02  0.3633E-01  0.3575E-01  0.3906E+03  0.3900E+03  0.1106E+02  0.1721E+00  0.0000E+00  0.0000E+00  0.0000E+00  0.0000E+00  0.0000E+00  0.0000E+00  0.0000E+00  0.0000E+00  0.0000E+00  0.0000E+00  0.0000E+00  0.0000E+00  0.0000E+00  0.0000E+00  0.0000E+00  0.0000E+00  0.0000E+00  0.1218E+02  0.2635E+01  0.1126E+00  0.2506E+02
REACH    2        0     5  0.1067E+00  0.2005E-01  0.2005E-01  0.5390E-06  0.0000E+00  0.6281E+01  0.6281E+01  0.3625E+04  0.1089E+02  0.1089E+02  0.2399E+01  0.2398E+01  0.1805E+00  0.1805E+00  0.0000E+00  0.4726E-03  0.0000E+00  0.0000E+00  0.7111E-02  0.7283E-02  0.2856E-01  0.2845E-01  0.3786E+03  0.3784E+03  0.1116E+02  0.1612E+00  0.0000E+00  0.0000E+00  0.0000E+00  0.0000E+00  0.0000E+00  0.0000E+00  0.0000E+00  0.0000E+00  0.0000E+00  0.0000E+00  0.0000E+00  0.0000E+00  0.0000E+00  0.0000E+00  0.0000E+00  0.0000E+00  0.0000E+00  0.1107E+02  0.2406E+01  0.1042E+00  0.2506E+02
REACH    3        0     5  0.6245E+00  0.1171E+00  0.1171E+00  0.6098E-04  0.0000E+00  0.5450E+02  0.5450E+02  0.5389E+04  0.7201E+02  0.7187E+02  0.1591E+02  0.1587E+02  0.1334E+01  0.1333E+01  0.0000E+00  0.8838E-01  0.0000E+00  0.0000E+00  0.3984E-01  0.7217E-01  0.2295E+00  0.2084E+00  0.3143E+04  0.3105E+04  0.5899E+02  0.9412E+00  0.0000E+00  0.0000E+00  0.0000E+00  0.0000E+00  0.0000E+00  0.0000E+00  0.0000E+00  0.0000E+00  0.0000E+00  0.0000E+00  0.0000E+00  0.0000E+00  0.0000E+00  0.0000E+00  0.0000E+00  0.0000E+00  0.0000E+00  0.7329E+02  0.1594E+02  0.1318E+00  0.2506E+02
REACH    4        0     5  0.1189E+01  0.2222E+00  0.2222E+00  0.6223E-04  0.0000E+00  0.1057E+03  0.6003E+01  0.3128E+03  0.1432E+03  0.1430E+03  0.3161E+02  0.3156E+02  0.2312E+01  0.2311E+01  0.9012E-01  0.2045E+00  0.0000E+00  0.1703E-03  0.1032E+00  0.1451E+00  0.5460E+00  0.5177E+00  0.6821E+04  0.6767E+04  0.4618E+02  0.1786E+01  0.0000E+00  0.0000E+00  0.0000E+00  0.0000E+00  0.0000E+00  0.0000E+00  0.0000E+00  0.0000E+00  0.0000E+00  0.0000E+00  0.0000E+00  0.0000E+00  0.0000E+00  0.0000E+00  0.0000E+00  0.0000E+00  0.0000E+00  0.1456E+03  0.3170E+02  0.1204E+00  0.2506E+02
REACH    5        0     5  0.1468E+01  0.2756E+00  0.2755E+00  0.4085E-04  0.0000E+00  0.1954E+02  0.3955E+01  0.1661E+03  0.1670E+03  0.1668E+03  0.3683E+02  0.3677E+02  0.2712E+01  0.2711E+01  0.2050E+00  0.3287E+00  0.1703E-03  0.3695E-03  0.1750E+00  0.2203E+00  0.5815E+00  0.5657E+00  0.7593E+04  0.7538E+04  0.2184E+02  0.2216E+01  0.0000E+00  0.0000E+00  0.0000E+00  0.0000E+00  0.0000E+00  0.0000E+00  0.0000E+00  0.0000E+00  0.0000E+00  0.0000E+00  0.0000E+00  0.0000E+00  0.0000E+00  0.0000E+00  0.0000E+00  0.0000E+00  0.0000E+00  0.1699E+03  0.3699E+02  0.1139E+00  0.2506E+02
REACH    1        0     6  0.1194E+00  0.5428E-02  0.5427E-02  0.1673E-05  0.0000E+00  0.2356E-08  0.2356E-08  0.5025E-05  0.7250E-04  0.7245E-04  0.1563E-04  0.1562E-04  0.7048E-01  0.7046E-01  0.0000E+00  0.1526E-04  0.0000E+00  0.0000E+00  0.3955E-05  0.5484E-05  0.4237E-08  0.0000E+00  0.0000E+00  0.0000E+00  0.3831E+01  0.3725E+01  0.0000E+00  0.0000E+00  0.0000E+00  0.0000E+00  0.0000E+00  0.0000E+00  0.0000E+00  0.0000E+00  0.0000E+00  0.0000E+00  0.0000E+00  0.0000E+00  0.0000E+00  0.0000E+00  0.0000E+00  0.0000E+00  0.0000E+00  0.7055E-01  0.2110E-04  0.1503E+00  0.2562E+02
REACH    2        0     6  0.1067E+00  0.4502E-02  0.4501E-02  0.4085E-06  0.0000E+00  0.3998E-08  0.3998E-08  0.1028E-04  0.1067E-07  0.0000E+00  0.3201E-07  0.0000E+00  0.6097E-01  0.6096E-01  0.0000E+00  0.3455E-05  0.0000E+00  0.0000E+00  0.2653E-05  0.2998E-05  0.4059E-08  0.0000E+00  0.0000E+00  0.0000E+00  0.3177E+01  0.3090E+01  0.0000E+00  0.0000E+00  0.0000E+00  0.0000E+00  0.0000E+00  0.0000E+00  0.0000E+00  0.0000E+00  0.0000E+00  0.0000E+00  0.0000E+00  0.0000E+00  0.0000E+00  0.0000E+00  0.0000E+00  0.0000E+00  0.0000E+00  0.6096E-01  0.2998E-05  0.1567E+00  0.2562E+02
REACH    3        0     6  0.6245E+00  0.2894E-01  0.2889E-01  0.5193E-04  0.0000E+00  0.5731E-08  0.5731E-08  0.2296E-05  0.5956E-03  0.5929E-03  0.1284E-03  0.1276E-03  0.4413E+00  0.4405E+00  0.0000E+00  0.5280E-03  0.0000E+00  0.0000E+00  0.7808E-05  0.2338E-04  0.4301E-07  0.0000E+00  0.0000E+00  0.0000E+00  0.2043E+02  0.1983E+02  0.0000E+00  0.0000E+00  0.0000E+00  0.0000E+00  0.0000E+00  0.0000E+00  0.0000E+00  0.0000E+00  0.0000E+00  0.0000E+00  0.0000E+00  0.0000E+00  0.0000E+00  0.0000E+00  0.0000E+00  0.0000E+00  0.0000E+00  0.4416E+00  0.1510E-03  0.1765E+00  0.2562E+02
REACH    4        0     6  0.1189E+01  0.5329E-01  0.5324E-01  0.5390E-04  0.0000E+00  0.2360E-07  0.8739E+00  0.1900E+03  0.7365E-03  0.7346E-03  0.1587E-03  0.1581E-03  0.7696E+00  0.7688E+00  0.5433E-03  0.1108E-02  0.0000E+00  0.0000E+00  0.8368E-04  0.1406E-03  0.2537E-06  0.0000E+00  0.0000E+00  0.0000E+00  0.3695E+02  0.3654E+02  0.0000E+00  0.0000E+00  0.0000E+00  0.0000E+00  0.0000E+00  0.0000E+00  0.0000E+00  0.0000E+00  0.0000E+00  0.0000E+00  0.0000E+00  0.0000E+00  0.0000E+00  0.0000E+00  0.0000E+00  0.0000E+00  0.0000E+00  0.7706E+00  0.2987E-03  0.1671E+00  0.2562E+02
REACH    5        0     6  0.1468E+01  0.6363E-01  0.6359E-01  0.3357E-04  0.0000E+00  0.8739E+00  0.5129E+00  0.9335E+02  0.7346E-03  0.7330E-03  0.1582E-03  0.1577E-03  0.9044E+00  0.9039E+00  0.1111E-02  0.1447E-02  0.0000E+00  0.0000E+00  0.7456E-03  0.7796E-03  0.9786E-06  0.8792E-06  0.0000E+00  0.0000E+00  0.4379E+02  0.4365E+02  0.0000E+00  0.0000E+00  0.0000E+00  0.0000E+00  0.0000E+00  0.0000E+00  0.0000E+00  0.0000E+00  0.0000E+00  0.0000E+00  0.0000E+00  0.0000E+00  0.0000E+00  0.0000E+00  0.0000E+00  0.0000E+00  0.0000E+00  0.9061E+00  0.9373E-03  0.1645E+00  0.2562E+02
REACH    1        0     7  0.1194E+00  0.1890E-02  0.1889E-02  0.1359E-05  0.0000E+00  0.2356E-08  0.2356E-08  0.1444E-04  0.3001E-05  0.2997E-05  0.6787E-06  0.6778E-06  0.2424E-01  0.2422E-01  0.0000E+00  0.1284E-04  0.0000E+00  0.0000E+00  0.2153E-05  0.3436E-05  0.2273E-09  0.0000E+00  0.0000E+00  0.0000E+00  0.1351E+01  0.1315E+01  0.0000E+00  0.0000E+00  0.0000E+00  0.0000E+00  0.0000E+00  0.0000E+00  0.0000E+00  0.0000E+00  0.0000E+00  0.0000E+00  0.0000E+00  0.0000E+00  0.0000E+00  0.0000E+00  0.0000E+00  0.0000E+00  0.0000E+00  0.2424E-01  0.4113E-05  0.1484E+00  0.2491E+02
REACH    2        0     7  0.1067E+00  0.1547E-02  0.1547E-02  0.3409E-06  0.0000E+00  0.3998E-08  0.3998E-08  0.2991E-04  0.1067E-07  0.0000E+00  0.3201E-07  0.0000E+00  0.2094E-01  0.2094E-01  0.0000E+00  0.2928E-05  0.0000E+00  0.0000E+00  0.1500E-07  0.0000E+00  0.3915E-13  0.0000E+00  0.0000E+00  0.0000E+00  0.1107E+01  0.1077E+01  0.0000E+00  0.0000E+00  0.0000E+00  0.0000E+00  0.0000E+00  0.0000E+00  0.0000E+00  0.0000E+00  0.0000E+00  0.0000E+00  0.0000E+00  0.0000E+00  0.0000E+00  0.0000E+00  0.0000E+00  0.0000E+00  0.0000E+00  0.2094E-01  0.0000E+00  0.1567E+00  0.2491E+02
REACH    3        0     7  0.6245E+00  0.9986E-02  0.9937E-02  0.4863E-04  0.0000E+00  0.5731E-08  0.5731E-08  0.6675E-05  0.3103E-04  0.3072E-04  0.6847E-05  0.6761E-05  0.1517E+00  0.1510E+00  0.0000E+00  0.4825E-03  0.0000E+00  0.0000E+00  0.1130E-05  0.3373E-05  0.1126E-10  0.0000E+00  0.0000E+00  0.0000E+00  0.7141E+01  0.6919E+01  0.0000E+00  0.0000E+00  0.0000E+00  0.0000E+00  0.0000E+00  0.0000E+00  0.0000E+00  0.0000E+00  0.0000E+00  0.0000E+00  0.0000E+00  0.0000E+00  0.0000E+00  0.0000E+00  0.0000E+00  0.0000E+00  0.0000E+00  0.1515E+00  0.1013E-04  0.1758E+00  0.2491E+02
REACH    4        0     7  0.1189E+01  0.1835E-01  0.1830E-01  0.5160E-04  0.0000E+00  0.2360E-07  0.1586E+00  0.1003E+03  0.3693E-04  0.3671E-04  0.8252E-05  0.8191E-05  0.2640E+00  0.2633E+00  0.4953E-03  0.1016E-02  0.0000E+00  0.3738E-05  0.1673E-04  0.5004E-04  0.1782E-07  0.0000E+00  0.0000E+00  0.0000E+00  0.1290E+02  0.1274E+02  0.0000E+00  0.0000E+00  0.0000E+00  0.0000E+00  0.0000E+00  0.0000E+00  0.0000E+00  0.0000E+00  0.0000E+00  0.0000E+00  0.0000E+00  0.0000E+00  0.0000E+00  0.0000E+00  0.0000E+00  0.0000E+00  0.0000E+00  0.2644E+00  0.5823E-04  0.1665E+00  0.2491E+02
REACH    5        0     7  0.1468E+01  0.2178E-01  0.2175E-01  0.3029E-04  0.0000E+00  0.1586E+00  0.1268E+00  0.6748E+02  0.3673E-04  0.3660E-04  0.8242E-05  0.8203E-05  0.3099E+00  0.3095E+00  0.1019E-02  0.1318E-02  0.3738E-05  0.9349E-05  0.1061E-03  0.1366E-03  0.8966E-07  0.0000E+00  0.0000E+00  0.0000E+00  0.1520E+02  0.1514E+02  0.0000E+00  0.0000E+00  0.0000E+00  0.0000E+00  0.0000E+00  0.0000E+00  0.0000E+00  0.0000E+00  0.0000E+00  0.0000E+00  0.0000E+00  0.0000E+00  0.0000E+00  0.0000E+00  0.0000E+00  0.0000E+00  0.0000E+00  0.3108E+00  0.1448E-03  0.1647E+00  0.2491E+02
REACH    1        0     8  0.1194E+00  0.6646E-03  0.6631E-03  0.1410E-05  0.0000E+00  0.2356E-08  0.2356E-08  0.4112E-04  0.1359E-06  0.1354E-06  0.6243E-07  0.6220E-07  0.8348E-02  0.8330E-02  0.0000E+00  0.1289E-04  0.0000E+00  0.0000E+00  0.1293E-05  0.2579E-05  0.5594E-10  0.0000E+00  0.0000E+00  0.0000E+00  0.4746E+00  0.4611E+00  0.0000E+00  0.0000E+00  0.0000E+00  0.0000E+00  0.0000E+00  0.0000E+00  0.0000E+00  0.0000E+00  0.0000E+00  0.0000E+00  0.0000E+00  0.0000E+00  0.0000E+00  0.0000E+00  0.0000E+00  0.0000E+00  0.0000E+00  0.8343E-02  0.2641E-05  0.0000E+00  0.2499E+02
REACH    2        0     8  0.1067E+00  0.5331E-03  0.5328E-03  0.2851E-06  0.0000E+00  0.3998E-08  0.3998E-08  0.8685E-04  0.1067E-07  0.0000E+00  0.3201E-07  0.0000E+00  0.7195E-02  0.7191E-02  0.0000E+00  0.2586E-05  0.0000E+00  0.0000E+00  0.1068E-07  0.0000E+00  0.3161E-16  0.0000E+00  0.0000E+00  0.0000E+00  0.3807E+00  0.3704E+00  0.0000E+00  0.0000E+00  0.0000E+00  0.0000E+00  0.0000E+00  0.0000E+00  0.0000E+00  0.0000E+00  0.0000E+00  0.0000E+00  0.0000E+00  0.0000E+00  0.0000E+00  0.0000E+00  0.0000E+00  0.0000E+00  0.0000E+00  0.7194E-02  0.0000E+00  0.0000E+00  0.2499E+02
REACH    3        0     8  0.6245E+00  0.3474E-02  0.3427E-02  0.4713E-04  0.0000E+00  0.5731E-08  0.5731E-08  0.1936E-04  0.1688E-05  0.1653E-05  0.5368E-06  0.5237E-06  0.5221E-01  0.5150E-01  0.0000E+00  0.4642E-03  0.0000E+00  0.0000E+00  0.2615E-06  0.0000E+00  0.4945E-13  0.0000E+00  0.0000E+00  0.0000E+00  0.2481E+01  0.2382E+01  0.0000E+00  0.0000E+00  0.0000E+00  0.0000E+00  0.0000E+00  0.0000E+00  0.0000E+00  0.0000E+00  0.0000E+00  0.0000E+00  0.0000E+00  0.0000E+00  0.0000E+00  0.0000E+00  0.0000E+00  0.0000E+00  0.0000E+00  0.5196E-01  0.5237E-06  0.1739E+00  0.2499E+02
REACH    4        0     8  0.1189E+01  0.6344E-02  0.6293E-02  0.5134E-04  0.0000E+00  0.2360E-07  0.3854E-01  0.7089E+02  0.1975E-05  0.1950E-05  0.7496E-06  0.7387E-06  0.9038E-01  0.8965E-01  0.4771E-03  0.9827E-03  0.0000E+00  0.5096E-05  0.5266E-05  0.1567E-04  0.3078E-08  0.0000E+00  0.0000E+00  0.0000E+00  0.4454E+01  0.4375E+01  0.0000E+00  0.0000E+00  0.0000E+00  0.0000E+00  0.0000E+00  0.0000E+00  0.0000E+00  0.0000E+00  0.0000E+00  0.0000E+00  0.0000E+00  0.0000E+00  0.0000E+00  0.0000E+00  0.0000E+00  0.0000E+00  0.0000E+00  0.9064E-01  0.1641E-04  0.1649E+00  0.2499E+02
REACH    5        0     8  0.1468E+01  0.7491E-02  0.7460E-02  0.3038E-04  0.0000E+00  0.3854E-01  0.2286E-01  0.3547E+02  0.1967E-05  0.1951E-05  0.7898E-06  0.7816E-06  0.1057E+00  0.1053E+00  0.9853E-03  0.1272E-02  0.5096E-05  0.1523E-04  0.2136E-04  0.5138E-04  0.7657E-08  0.0000E+00  0.0000E+00  0.0000E+00  0.5220E+01  0.5186E+01  0.0000E+00  0.0000E+00  0.0000E+00  0.0000E+00  0.0000E+00  0.0000E+00  0.0000E+00  0.0000E+00  0.0000E+00  0.0000E+00  0.0000E+00  0.0000E+00  0.0000E+00  0.0000E+00  0.0000E+00  0.0000E+00  0.0000E+00  0.1065E+00  0.5216E-04  0.1633E+00  0.2499E+02
REACH    1        0     9  0.1194E+00  0.6949E-01  0.6948E-01  0.1078E-04  0.0000E+00  0.3178E+02  0.3178E+02  0.5293E+04  0.7488E+02  0.7485E+02  0.1646E+02  0.1645E+02  0.3779E+00  0.3776E+00  0.0000E+00  0.1185E-01  0.0000E+00  0.0000E+00  0.2957E-01  0.3385E-01  0.1336E+01  0.1321E+01  0.5986E+04  0.5976E+04  0.1678E+02  0.5558E+00  0.0000E+00  0.0000E+00  0.0000E+00  0.0000E+00  0.0000E+00  0.0000E+00  0.0000E+00  0.0000E+00  0.0000E+00  0.0000E+00  0.0000E+00  0.0000E+00  0.0000E+00  0.0000E+00  0.0000E+00  0.0000E+00  0.0000E+00  0.7524E+02  0.1649E+02  0.6290E-01  0.2405E+02
REACH    2        0     9  0.1067E+00  0.5742E-01  0.5742E-01  0.2280E-05  0.0000E+00  0.3799E+02  0.3799E+02  0.7658E+04  0.6979E+02  0.6978E+02  0.1537E+02  0.1537E+02  0.2330E+00  0.2329E+00  0.0000E+00  0.4240E-02  0.0000E+00  0.0000E+00  0.2570E-01  0.2724E-01  0.1195E+01  0.1191E+01  0.6287E+04  0.6283E+04  0.1583E+02  0.4593E+00  0.0000E+00  0.0000E+00  0.0000E+00  0.0000E+00  0.0000E+00  0.0000E+00  0.0000E+00  0.0000E+00  0.0000E+00  0.0000E+00  0.0000E+00  0.0000E+00  0.0000E+00  0.0000E+00  0.0000E+00  0.0000E+00  0.0000E+00  0.7002E+02  0.1539E+02  0.4695E-01  0.2405E+02
REACH    3        0     9  0.6245E+00  0.3690E+00  0.3690E+00  0.5471E-04  0.0000E+00  0.3202E+03  0.3202E+03  0.1004E+05  0.4497E+03  0.4493E+03  0.9934E+02  0.9920E+02  0.1675E+01  0.1666E+01  0.0000E+00  0.3112E+00  0.0000E+00  0.0000E+00  0.2569E+00  0.3696E+00  0.7816E+01  0.7560E+01  0.4746E+05  0.4713E+05  0.8545E+02  0.2951E+01  0.0000E+00  0.0000E+00  0.0000E+00  0.0000E+00  0.0000E+00  0.0000E+00  0.0000E+00  0.0000E+00  0.0000E+00  0.0000E+00  0.0000E+00  0.0000E+00  0.0000E+00  0.0000E+00  0.0000E+00  0.0000E+00  0.0000E+00  0.4513E+03  0.9957E+02  0.5227E-01  0.2405E+02
REACH    4        0     9  0.1189E+01  0.6838E+00  0.6838E+00  0.5440E-04  0.0000E+00  0.5916E+03  0.2954E+02  0.5000E+03  0.8724E+03  0.8719E+03  0.1925E+03  0.1923E+03  0.3032E+01  0.3020E+01  0.3230E+00  0.7279E+00  0.0000E+00  0.2250E-03  0.5093E+00  0.6562E+00  0.1519E+02  0.1491E+02  0.9059E+05  0.9018E+05  0.6802E+02  0.5469E+01  0.0000E+00  0.0000E+00  0.0000E+00  0.0000E+00  0.0000E+00  0.0000E+00  0.0000E+00  0.0000E+00  0.0000E+00  0.0000E+00  0.0000E+00  0.0000E+00  0.0000E+00  0.0000E+00  0.0000E+00  0.0000E+00  0.0000E+00  0.8756E+03  0.1930E+03  0.5112E-01  0.2405E+02
REACH    5        0     9  0.1468E+01  0.8208E+00  0.8207E+00  0.1689E-03  0.0000E+00  0.1113E+03  0.9439E+01  0.1331E+03  0.1025E+04  0.1024E+04  0.2260E+03  0.2256E+03  0.3538E+01  0.3513E+01  0.7322E+00  0.1631E+01  0.2250E-03  0.6750E-03  0.7300E+00  0.1056E+01  0.1754E+02  0.1714E+02  0.1038E+06  0.1029E+06  0.3190E+02  0.6564E+01  0.0000E+00  0.0000E+00  0.0000E+00  0.0000E+00  0.0000E+00  0.0000E+00  0.0000E+00  0.0000E+00  0.0000E+00  0.0000E+00  0.0000E+00  0.0000E+00  0.0000E+00  0.0000E+00  0.0000E+00  0.0000E+00  0.0000E+00  0.1029E+04  0.2267E+03  0.4954E-01  0.2405E+02
REACH    1        0    10  0.1194E+00  0.5731E-01  0.5730E-01  0.1043E-04  0.0000E+00  0.4029E-04  0.4029E-04  0.8138E-02  0.5698E+02  0.5696E+02  0.1253E+02  0.1252E+02  0.6145E+00  0.6143E+00  0.0000E+00  0.1077E-01  0.0000E+00  0.0000E+00  0.1652E-01  0.2043E-01  0.5037E+00  0.4969E+00  0.1175E-01  0.1172E-01  0.4190E+02  0.4085E+02  0.0000E+00  0.0000E+00  0.0000E+00  0.0000E+00  0.0000E+00  0.0000E+00  0.0000E+00  0.0000E+00  0.0000E+00  0.0000E+00  0.0000E+00  0.0000E+00  0.0000E+00  0.0000E+00  0.0000E+00  0.0000E+00  0.0000E+00  0.5758E+02  0.1254E+02  0.1241E+00  0.2371E+02
REACH    2        0    10  0.1067E+00  0.5194E-01  0.5194E-01  0.2201E-05  0.0000E+00  0.3998E-08  0.3998E-08  0.8909E-06  0.5209E+02  0.5208E+02  0.1147E+02  0.1147E+02  0.4410E+00  0.4409E+00  0.0000E+00  0.3446E-02  0.0000E+00  0.0000E+00  0.2236E-01  0.2362E-01  0.4434E+00  0.4415E+00  0.1044E-06  0.0000E+00  0.3798E+02  0.3705E+02  0.0000E+00  0.0000E+00  0.0000E+00  0.0000E+00  0.0000E+00  0.0000E+00  0.0000E+00  0.0000E+00  0.0000E+00  0.0000E+00  0.0000E+00  0.0000E+00  0.0000E+00  0.0000E+00  0.0000E+00  0.0000E+00  0.0000E+00  0.5252E+02  0.1149E+02  0.9825E-01  0.2371E+02
REACH    3        0    10  0.6245E+00  0.3007E+00  0.3006E+00  0.5074E-04  0.0000E+00  0.2000E+00  0.2000E+00  0.7698E+01  0.3213E+03  0.3209E+03  0.7098E+02  0.7088E+02  0.2944E+01  0.2941E+01  0.0000E+00  0.2353E+00  0.0000E+00  0.0000E+00  0.1483E+00  0.2343E+00  0.2814E+01  0.2705E+01  0.2786E+02  0.2766E+02  0.2188E+03  0.1730E+03  0.0000E+00  0.0000E+00  0.0000E+00  0.0000E+00  0.0000E+00  0.0000E+00  0.0000E+00  0.0000E+00  0.0000E+00  0.0000E+00  0.0000E+00  0.0000E+00  0.0000E+00  0.0000E+00  0.0000E+00  0.0000E+00  0.0000E+00  0.3241E+03  0.7111E+02  0.1132E+00  0.2371E+02
REACH    4        0    10  0.1189E+01  0.5740E+00  0.5740E+00  0.5099E-04  0.0000E+00  0.9538E+00  0.2363E+02  0.4766E+03  0.6285E+03  0.6281E+03  0.1387E+03  0.1386E+03  0.5425E+01  0.5420E+01  0.2461E+00  0.5548E+00  0.0000E+00  0.3546E-03  0.3399E+00  0.4527E+00  0.5575E+01  0.5455E+01  0.1347E+03  0.1340E+03  0.3675E+03  0.2378E+03  0.0000E+00  0.0000E+00  0.0000E+00  0.0000E+00  0.0000E+00  0.0000E+00  0.0000E+00  0.0000E+00  0.0000E+00  0.0000E+00  0.0000E+00  0.0000E+00  0.0000E+00  0.0000E+00  0.0000E+00  0.0000E+00  0.0000E+00  0.6341E+03  0.1390E+03  0.1093E+00  0.2371E+02
REACH    5        0    10  0.1468E+01  0.7113E+00  0.7111E+00  0.1629E-03  0.0000E+00  0.2363E+02  0.7087E+01  0.1153E+03  0.7427E+03  0.7416E+03  0.1638E+03  0.1634E+03  0.6404E+01  0.6392E+01  0.5582E+00  0.1300E+01  0.3546E-03  0.1064E-02  0.5373E+00  0.8086E+00  0.6434E+01  0.6269E+01  0.1340E+03  0.1327E+03  0.3373E+03  0.3276E+03  0.0000E+00  0.0000E+00  0.0000E+00  0.0000E+00  0.0000E+00  0.0000E+00  0.0000E+00  0.0000E+00  0.0000E+00  0.0000E+00  0.0000E+00  0.0000E+00  0.0000E+00  0.0000E+00  0.0000E+00  0.0000E+00  0.0000E+00  0.7493E+03  0.1643E+03  0.1040E+00  0.2371E+02
REACH    1        0    11  0.1194E+00  0.6399E-01  0.6398E-01  0.5487E-05  0.0000E+00  0.2753E+02  0.2753E+02  0.4979E+04  0.5354E+02  0.5353E+02  0.1177E+02  0.1177E+02  0.6653E+00  0.6651E+00  0.0000E+00  0.9324E-02  0.0000E+00  0.0000E+00  0.1806E-01  0.2146E-01  0.4812E+00  0.4753E+00  0.3433E+04  0.3427E+04  0.2434E+02  0.5125E+00  0.0000E+00  0.0000E+00  0.0000E+00  0.0000E+00  0.0000E+00  0.0000E+00  0.0000E+00  0.0000E+00  0.0000E+00  0.0000E+00  0.0000E+00  0.0000E+00  0.0000E+00  0.0000E+00  0.0000E+00  0.0000E+00  0.0000E+00  0.5420E+02  0.1179E+02  0.1203E+00  0.2431E+02
REACH    2        0    11  0.1067E+00  0.5850E-01  0.5850E-01  0.1162E-05  0.0000E+00  0.3384E+02  0.3384E+02  0.6695E+04  0.4894E+02  0.4893E+02  0.1078E+02  0.1078E+02  0.6498E+00  0.6497E+00  0.0000E+00  0.2957E-02  0.0000E+00  0.0000E+00  0.2439E-01  0.2547E-01  0.4262E+00  0.4246E+00  0.3722E+04  0.3720E+04  0.2505E+02  0.4686E+00  0.0000E+00  0.0000E+00  0.0000E+00  0.0000E+00  0.0000E+00  0.0000E+00  0.0000E+00  0.0000E+00  0.0000E+00  0.0000E+00  0.0000E+00  0.0000E+00  0.0000E+00  0.0000E+00  0.0000E+00  0.0000E+00  0.0000E+00  0.4959E+02  0.1080E+02  0.1285E+00  0.2431E+02
REACH    3        0    11  0.6245E+00  0.3400E+00  0.3400E+00  0.2775E-04  0.0000E+00  0.2852E+03  0.2852E+03  0.9708E+04  0.2913E+03  0.2910E+03  0.6437E+02  0.6427E+02  0.4071E+01  0.4068E+01  0.0000E+00  0.2216E+00  0.0000E+00  0.0000E+00  0.1641E+00  0.2451E+00  0.2590E+01  0.2496E+01  0.2831E+05  0.2810E+05  0.1232E+03  0.2723E+01  0.0000E+00  0.0000E+00  0.0000E+00  0.0000E+00  0.0000E+00  0.0000E+00  0.0000E+00  0.0000E+00  0.0000E+00  0.0000E+00  0.0000E+00  0.0000E+00  0.0000E+00  0.0000E+00  0.0000E+00  0.0000E+00  0.0000E+00  0.2953E+03  0.6452E+02  0.1385E+00  0.2431E+02
REACH    4        0    11  0.1189E+01  0.6476E+00  0.6476E+00  0.2771E-04  0.0000E+00  0.5267E+03  0.2708E+02  0.4840E+03  0.5721E+03  0.5717E+03  0.1262E+03  0.1261E+03  0.7495E+01  0.7491E+01  0.2309E+00  0.5156E+00  0.0000E+00  0.2329E-03  0.3596E+00  0.4637E+00  0.5107E+01  0.5005E+01  0.5461E+05  0.5435E+05  0.1033E+03  0.5187E+01  0.0000E+00  0.0000E+00  0.0000E+00  0.0000E+00  0.0000E+00  0.0000E+00  0.0000E+00  0.0000E+00  0.0000E+00  0.0000E+00  0.0000E+00  0.0000E+00  0.0000E+00  0.0000E+00  0.0000E+00  0.0000E+00  0.0000E+00  0.5797E+03  0.1266E+03  0.1339E+00  0.2431E+02
REACH    5        0    11  0.1468E+01  0.8015E+00  0.8014E+00  0.8616E-04  0.0000E+00  0.9993E+02  0.8999E+01  0.1300E+03  0.6795E+03  0.6787E+03  0.1499E+03  0.1496E+03  0.8924E+01  0.8916E+01  0.5185E+00  0.1139E+01  0.2329E-03  0.6986E-03  0.5555E+00  0.7825E+00  0.5948E+01  0.5809E+01  0.6244E+05  0.6188E+05  0.5338E+02  0.6419E+01  0.0000E+00  0.0000E+00  0.0000E+00  0.0000E+00  0.0000E+00  0.0000E+00  0.0000E+00  0.0000E+00  0.0000E+00  0.0000E+00  0.0000E+00  0.0000E+00  0.0000E+00  0.0000E+00  0.0000E+00  0.0000E+00  0.0000E+00  0.6888E+03  0.1504E+03  0.1288E+00  0.2431E+02
REACH    1        0    12  0.1194E+00  0.4903E-01  0.4903E-01  0.4614E-05  0.0000E+00  0.1058E-04  0.1058E-04  0.2498E-02  0.2337E+02  0.2336E+02  0.5136E+01  0.5135E+01  0.6220E+00  0.6220E+00  0.0000E+00  0.2553E-02  0.0000E+00  0.0000E+00  0.9804E-02  0.1073E-01  0.1120E+00  0.1111E+00  0.3558E-06  0.0000E+00  0.3536E+02  0.3445E+02  0.0000E+00  0.0000E+00  0.0000E+00  0.0000E+00  0.0000E+00  0.0000E+00  0.0000E+00  0.0000E+00  0.0000E+00  0.0000E+00  0.0000E+00  0.0000E+00  0.0000E+00  0.0000E+00  0.0000E+00  0.0000E+00  0.0000E+00  0.2398E+02  0.5146E+01  0.1468E+00  0.2446E+02
REACH    2        0    12  0.1067E+00  0.4471E-01  0.4471E-01  0.1002E-05  0.0000E+00  0.3998E-08  0.3998E-08  0.1035E-05  0.2088E+02  0.2087E+02  0.4597E+01  0.4597E+01  0.6731E+00  0.6731E+00  0.0000E+00  0.1667E-02  0.0000E+00  0.0000E+00  0.1510E-01  0.1571E-01  0.9569E-01  0.9521E-01  0.8505E-07  0.0000E+00  0.3224E+02  0.3141E+02  0.0000E+00  0.0000E+00  0.0000E+00  0.0000E+00  0.0000E+00  0.0000E+00  0.0000E+00  0.0000E+00  0.0000E+00  0.0000E+00  0.0000E+00  0.0000E+00  0.0000E+00  0.0000E+00  0.0000E+00  0.0000E+00  0.0000E+00  0.2155E+02  0.4612E+01  0.1742E+00  0.2446E+02
REACH    3        0    12  0.6245E+00  0.2624E+00  0.2624E+00  0.2295E-04  0.0000E+00  0.2426E-04  0.2426E-04  0.1070E-02  0.1203E+03  0.1201E+03  0.2658E+02  0.2654E+02  0.4218E+01  0.4218E+01  0.0000E+00  0.1048E+00  0.0000E+00  0.0000E+00  0.9450E-01  0.1329E+00  0.5710E+00  0.5452E+00  0.6824E-02  0.6766E-02  0.1892E+03  0.1843E+03  0.0000E+00  0.0000E+00  0.0000E+00  0.0000E+00  0.0000E+00  0.0000E+00  0.0000E+00  0.0000E+00  0.0000E+00  0.0000E+00  0.0000E+00  0.0000E+00  0.0000E+00  0.0000E+00  0.0000E+00  0.0000E+00  0.0000E+00  0.1245E+03  0.2667E+02  0.1860E+00  0.2446E+02
REACH    4        0    12  0.1189E+01  0.4979E+00  0.4979E+00  0.2249E-04  0.0000E+00  0.4544E-04  0.1992E+02  0.4632E+03  0.2384E+03  0.2382E+03  0.5261E+02  0.5256E+02  0.7793E+01  0.7792E+01  0.1074E+00  0.2325E+00  0.0000E+00  0.1698E-03  0.2005E+00  0.2464E+00  0.1149E+01  0.1120E+01  0.6767E-02  0.6733E-02  0.3533E+03  0.3497E+03  0.0000E+00  0.0000E+00  0.0000E+00  0.0000E+00  0.0000E+00  0.0000E+00  0.0000E+00  0.0000E+00  0.0000E+00  0.0000E+00  0.0000E+00  0.0000E+00  0.0000E+00  0.0000E+00  0.0000E+00  0.0000E+00  0.0000E+00  0.2463E+03  0.5281E+02  0.1811E+00  0.2446E+02
REACH    5        0    12  0.1468E+01  0.6147E+00  0.6146E+00  0.7359E-04  0.0000E+00  0.1992E+02  0.6137E+01  0.1156E+03  0.2843E+03  0.2840E+03  0.6271E+02  0.6258E+02  0.9271E+01  0.9268E+01  0.2342E+00  0.5284E+00  0.1698E-03  0.5094E-03  0.3070E+00  0.4149E+00  0.1333E+01  0.1296E+01  0.6733E-02  0.6665E-02  0.4331E+03  0.4315E+03  0.0000E+00  0.0000E+00  0.0000E+00  0.0000E+00  0.0000E+00  0.0000E+00  0.0000E+00  0.0000E+00  0.0000E+00  0.0000E+00  0.0000E+00  0.0000E+00  0.0000E+00  0.0000E+00  0.0000E+00  0.0000E+00  0.0000E+00  0.2938E+03  0.6300E+02  0.1745E+00  0.2446E+02
REACH    1        0    13  0.1194E+00  0.2252E-01  0.2252E-01  0.7563E-06  0.0000E+00  0.2621E+00  0.2621E+00  0.1347E+03  0.6543E+00  0.6541E+00  0.1438E+00  0.1438E+00  0.3977E+00  0.3977E+00  0.0000E+00  0.1049E-03  0.0000E+00  0.0000E+00  0.6384E-03  0.6722E-03  0.6621E-04  0.6521E-04  0.4634E+01  0.4628E+01  0.1541E+02  0.9605E+01  0.0000E+00  0.0000E+00  0.0000E+00  0.0000E+00  0.0000E+00  0.0000E+00  0.0000E+00  0.0000E+00  0.0000E+00  0.0000E+00  0.0000E+00  0.0000E+00  0.0000E+00  0.0000E+00  0.0000E+00  0.0000E+00  0.0000E+00  0.1052E+01  0.1445E+00  0.2044E+00  0.2461E+02
REACH    2        0    13  0.1067E+00  0.2004E-01  0.2004E-01  0.1789E-06  0.0000E+00  0.3219E+00  0.3219E+00  0.1859E+03  0.5782E+00  0.5782E+00  0.1274E+00  0.1273E+00  0.4413E+00  0.4413E+00  0.0000E+00  0.2828E-04  0.0000E+00  0.0000E+00  0.3117E-02  0.3126E-02  0.5591E-04  0.5569E-04  0.4944E+01  0.4941E+01  0.1380E+02  0.7752E+01  0.0000E+00  0.0000E+00  0.0000E+00  0.0000E+00  0.0000E+00  0.0000E+00  0.0000E+00  0.0000E+00  0.0000E+00  0.0000E+00  0.0000E+00  0.0000E+00  0.0000E+00  0.0000E+00  0.0000E+00  0.0000E+00  0.0000E+00  0.1020E+01  0.1305E+00  0.2548E+00  0.2461E+02
REACH    3        0    13  0.6245E+00  0.1198E+00  0.1198E+00  0.2022E-04  0.0000E+00  0.2996E+01  0.2996E+01  0.2895E+03  0.3366E+01  0.3360E+01  0.7448E+00  0.7430E+00  0.2780E+01  0.2779E+01  0.0000E+00  0.4472E-02  0.0000E+00  0.0000E+00  0.9607E-02  0.1111E-01  0.9108E-03  0.8295E-03  0.7171E+02  0.7089E+02  0.8209E+02  0.2014E+02  0.0000E+00  0.0000E+00  0.0000E+00  0.0000E+00  0.0000E+00  0.0000E+00  0.0000E+00  0.0000E+00  0.0000E+00  0.0000E+00  0.0000E+00  0.0000E+00  0.0000E+00  0.0000E+00  0.0000E+00  0.0000E+00  0.0000E+00  0.6144E+01  0.7541E+00  0.2686E+00  0.2461E+02
REACH    4        0    13  0.1189E+01  0.2260E+00  0.2260E+00  0.2065E-04  0.0000E+00  0.6320E+01  0.6212E+01  0.3181E+03  0.6839E+01  0.6832E+01  0.1511E+01  0.1508E+01  0.5146E+01  0.5146E+01  0.4577E-02  0.1038E-01  0.0000E+00  0.0000E+00  0.2282E-01  0.2480E-01  0.3572E-02  0.3391E-02  0.2371E+03  0.2353E+03  0.8672E+02  0.1384E+02  0.0000E+00  0.0000E+00  0.0000E+00  0.0000E+00  0.0000E+00  0.0000E+00  0.0000E+00  0.0000E+00  0.0000E+00  0.0000E+00  0.0000E+00  0.0000E+00  0.0000E+00  0.0000E+00  0.0000E+00  0.0000E+00  0.0000E+00  0.1199E+02  0.1533E+01  0.2635E+00  0.2461E+02
REACH    5        0    13  0.1468E+01  0.2768E+00  0.2768E+00  0.1356E-04  0.0000E+00  0.6907E+01  0.3991E+01  0.1669E+03  0.8115E+01  0.8108E+01  0.1791E+01  0.1788E+01  0.6115E+01  0.6115E+01  0.1041E-01  0.1661E-01  0.0000E+00  0.0000E+00  0.4121E-01  0.4340E-01  0.3543E-02  0.3447E-02  0.2462E+03  0.2445E+03  0.4293E+02  0.2397E+02  0.0000E+00  0.0000E+00  0.0000E+00  0.0000E+00  0.0000E+00  0.0000E+00  0.0000E+00  0.0000E+00  0.0000E+00  0.0000E+00  0.0000E+00  0.0000E+00  0.0000E+00  0.0000E+00  0.0000E+00  0.0000E+00  0.0000E+00  0.1424E+02  0.1832E+01  0.2557E+00  0.2461E+02
REACH    1        0    14  0.1194E+00  0.2744E-01  0.2744E-01  0.9492E-06  0.0000E+00  0.1775E+01  0.1775E+01  0.7488E+03  0.4481E+01  0.4480E+01  0.9851E+00  0.9848E+00  0.4026E+00  0.4026E+00  0.0000E+00  0.6845E-03  0.0000E+00  0.0000E+00  0.2851E-02  0.3096E-02  0.6193E-02  0.6109E-02  0.1063E+03  0.1061E+03  0.1612E+02  0.2215E+00  0.0000E+00  0.0000E+00  0.0000E+00  0.0000E+00  0.0000E+00  0.0000E+00  0.0000E+00  0.0000E+00  0.0000E+00  0.0000E+00  0.0000E+00  0.0000E+00  0.0000E+00  0.0000E+00  0.0000E+00  0.0000E+00  0.0000E+00  0.4883E+01  0.9879E+00  0.1698E+00  0.2442E+02
REACH    2        0    14  0.1067E+00  0.2517E-01  0.2517E-01  0.1075E-05  0.0000E+00  0.2181E+01  0.2181E+01  0.1003E+04  0.3963E+01  0.3962E+01  0.8728E+00  0.8726E+00  0.4562E+00  0.4562E+00  0.0000E+00  0.3537E-03  0.0000E+00  0.0000E+00  0.6589E-02  0.6717E-02  0.5190E-02  0.5157E-02  0.1139E+03  0.1138E+03  0.1527E+02  0.2020E+00  0.0000E+00  0.0000E+00  0.0000E+00  0.0000E+00  0.0000E+00  0.0000E+00  0.0000E+00  0.0000E+00  0.0000E+00  0.0000E+00  0.0000E+00  0.0000E+00  0.0000E+00  0.0000E+00  0.0000E+00  0.0000E+00  0.0000E+00  0.4419E+01  0.8794E+00  0.2098E+00  0.2442E+02
REACH    3        0    14  0.6245E+00  0.1484E+00  0.1484E+00  0.2234E-04  0.0000E+00  0.1872E+02  0.1872E+02  0.1460E+04  0.2260E+02  0.2257E+02  0.4997E+01  0.4988E+01  0.2873E+01  0.2873E+01  0.0000E+00  0.2166E-01  0.0000E+00  0.0000E+00  0.3205E-01  0.3988E-01  0.3330E-01  0.3092E-01  0.9356E+03  0.9271E+03  0.8721E+02  0.1189E+01  0.0000E+00  0.0000E+00  0.0000E+00  0.0000E+00  0.0000E+00  0.0000E+00  0.0000E+00  0.0000E+00  0.0000E+00  0.0000E+00  0.0000E+00  0.0000E+00  0.0000E+00  0.0000E+00  0.0000E+00  0.0000E+00  0.0000E+00  0.2546E+02  0.5028E+01  0.2240E+00  0.2442E+02
REACH    4        0    14  0.1189E+01  0.2809E+00  0.2809E+00  0.2363E-04  0.0000E+00  0.3542E+02  0.8234E+01  0.3393E+03  0.4516E+02  0.4512E+02  0.9971E+01  0.9957E+01  0.5319E+01  0.5319E+01  0.2235E-01  0.5507E-01  0.0000E+00  0.3843E-04  0.6701E-01  0.7890E-01  0.7314E-01  0.7009E-01  0.2002E+04  0.1988E+04  0.6379E+02  0.2251E+01  0.0000E+00  0.0000E+00  0.0000E+00  0.0000E+00  0.0000E+00  0.0000E+00  0.0000E+00  0.0000E+00  0.0000E+00  0.0000E+00  0.0000E+00  0.0000E+00  0.0000E+00  0.0000E+00  0.0000E+00  0.0000E+00  0.0000E+00  0.5050E+02  0.1004E+02  0.2191E+00  0.2442E+02
REACH    5        0    14  0.1468E+01  0.3464E+00  0.3464E+00  0.1539E-04  0.0000E+00  0.1293E+02  0.5714E+01  0.1909E+03  0.5389E+02  0.5385E+02  0.1189E+02  0.1187E+02  0.6320E+01  0.6319E+01  0.5542E-01  0.8944E-01  0.3843E-04  0.8364E-04  0.1082E+00  0.1206E+00  0.8180E-01  0.8000E-01  0.2237E+04  0.2223E+04  0.2798E+02  0.2776E+01  0.0000E+00  0.0000E+00  0.0000E+00  0.0000E+00  0.0000E+00  0.0000E+00  0.0000E+00  0.0000E+00  0.0000E+00  0.0000E+00  0.0000E+00  0.0000E+00  0.0000E+00  0.0000E+00  0.0000E+00  0.0000E+00  0.0000E+00  0.6026E+02  0.1199E+02  0.2111E+00  0.2442E+02
REACH    1        0    15  0.1194E+00  0.2147E-01  0.2146E-01  0.9713E-06  0.0000E+00  0.9401E-07  0.9401E-07  0.5069E-04  0.2909E+01  0.2908E+01  0.6394E+00  0.6392E+00  0.3363E+00  0.3363E+00  0.0000E+00  0.4253E-03  0.0000E+00  0.0000E+00  0.1114E-02  0.1265E-02  0.1024E-02  0.1008E-02  0.2563E-07  0.0000E+00  0.1544E+02  0.1504E+02  0.0000E+00  0.0000E+00  0.0000E+00  0.0000E+00  0.0000E+00  0.0000E+00  0.0000E+00  0.0000E+00  0.0000E+00  0.0000E+00  0.0000E+00  0.0000E+00  0.0000E+00  0.0000E+00  0.0000E+00  0.0000E+00  0.0000E+00  0.3245E+01  0.6405E+00  0.1814E+00  0.2461E+02
REACH    2        0    15  0.1067E+00  0.1951E-01  0.1951E-01  0.2298E-06  0.0000E+00  0.3998E-08  0.3998E-08  0.2372E-05  0.2569E+01  0.2569E+01  0.5660E+00  0.5659E+00  0.3823E+00  0.3823E+00  0.0000E+00  0.1152E-03  0.0000E+00  0.0000E+00  0.4028E-02  0.4069E-02  0.8571E-03  0.8538E-03  0.2231E-07  0.0000E+00  0.1403E+02  0.1366E+02  0.0000E+00  0.0000E+00  0.0000E+00  0.0000E+00  0.0000E+00  0.0000E+00  0.0000E+00  0.0000E+00  0.0000E+00  0.0000E+00  0.0000E+00  0.0000E+00  0.0000E+00  0.0000E+00  0.0000E+00  0.0000E+00  0.0000E+00  0.2952E+01  0.5700E+00  0.2268E+00  0.2461E+02
REACH    3        0    15  0.6245E+00  0.1158E+00  0.1158E+00  0.2597E-04  0.0000E+00  0.6483E+00  0.6483E+00  0.6480E+02  0.1479E+02  0.1476E+02  0.3274E+01  0.3266E+01  0.2409E+01  0.2409E+01  0.0000E+00  0.1841E-01  0.0000E+00  0.0000E+00  0.1494E-01  0.2159E-01  0.7575E-02  0.6876E-02  0.6064E+02  0.5992E+02  0.8190E+02  0.2320E+02  0.0000E+00  0.0000E+00  0.0000E+00  0.0000E+00  0.0000E+00  0.0000E+00  0.0000E+00  0.0000E+00  0.0000E+00  0.0000E+00  0.0000E+00  0.0000E+00  0.0000E+00  0.0000E+00  0.0000E+00  0.0000E+00  0.0000E+00  0.1719E+02  0.3287E+01  0.2408E+00  0.2461E+02
REACH    4        0    15  0.1189E+01  0.2187E+00  0.2187E+00  0.2652E-04  0.0000E+00  0.3061E+01  0.5818E+01  0.3079E+03  0.2971E+02  0.2968E+02  0.6563E+01  0.6552E+01  0.4462E+01  0.4462E+01  0.1884E-01  0.4290E-01  0.0000E+00  0.4351E-04  0.3719E-01  0.4591E-01  0.2148E-01  0.2036E-01  0.2914E+03  0.2891E+03  0.9587E+02  0.7575E+01  0.0000E+00  0.0000E+00  0.0000E+00  0.0000E+00  0.0000E+00  0.0000E+00  0.0000E+00  0.0000E+00  0.0000E+00  0.0000E+00  0.0000E+00  0.0000E+00  0.0000E+00  0.0000E+00  0.0000E+00  0.0000E+00  0.0000E+00  0.3418E+02  0.6598E+01  0.2361E+00  0.2461E+02
REACH    5        0    15  0.1468E+01  0.2691E+00  0.2691E+00  0.1742E-04  0.0000E+00  0.5821E+01  0.3771E+01  0.1622E+03  0.3538E+02  0.3534E+02  0.7808E+01  0.7796E+01  0.5301E+01  0.5300E+01  0.4302E-01  0.6958E-01  0.4351E-04  0.1093E-03  0.6555E-01  0.7524E-01  0.2238E-01  0.2175E-01  0.2894E+03  0.2873E+03  0.4339E+02  0.1557E+02  0.0000E+00  0.0000E+00  0.0000E+00  0.0000E+00  0.0000E+00  0.0000E+00  0.0000E+00  0.0000E+00  0.0000E+00  0.0000E+00  0.0000E+00  0.0000E+00  0.0000E+00  0.0000E+00  0.0000E+00  0.0000E+00  0.0000E+00  0.4071E+02  0.7872E+01  0.2280E+00  0.2461E+02
REACH    1        0    16  0.1194E+00  0.1187E-01  0.1187E-01  0.9465E-06  0.0000E+00  0.2089E-07  0.2089E-07  0.2038E-04  0.5902E-04  0.5900E-04  0.1269E-04  0.1269E-04  0.1861E+00  0.1861E+00  0.0000E+00  0.1611E-04  0.0000E+00  0.0000E+00  0.7888E-05  0.9501E-05  0.2955E-06  0.2879E-06  0.0000E+00  0.0000E+00  0.8492E+01  0.8268E+01  0.0000E+00  0.0000E+00  0.0000E+00  0.0000E+00  0.0000E+00  0.0000E+00  0.0000E+00  0.0000E+00  0.0000E+00  0.0000E+00  0.0000E+00  0.0000E+00  0.0000E+00  0.0000E+00  0.0000E+00  0.0000E+00  0.0000E+00  0.1861E+00  0.2219E-04  0.1815E+00  0.2488E+02
REACH    2        0    16  0.1067E+00  0.1039E-01  0.1039E-01  0.2275E-06  0.0000E+00  0.3998E-08  0.3998E-08  0.4452E-05  0.1067E-07  0.0000E+00  0.3201E-07  0.0000E+00  0.2054E+00  0.2054E+00  0.0000E+00  0.3629E-05  0.0000E+00  0.0000E+00  0.1270E-02  0.1271E-02  0.2680E-05  0.2662E-05  0.0000E+00  0.0000E+00  0.7438E+01  0.7243E+01  0.0000E+00  0.0000E+00  0.0000E+00  0.0000E+00  0.0000E+00  0.0000E+00  0.0000E+00  0.0000E+00  0.0000E+00  0.0000E+00  0.0000E+00  0.0000E+00  0.0000E+00  0.0000E+00  0.0000E+00  0.0000E+00  0.0000E+00  0.2054E+00  0.1271E-02  0.2287E+00  0.2488E+02
REACH    3        0    16  0.6245E+00  0.6298E-01  0.6295E-01  0.2618E-04  0.0000E+00  0.5731E-08  0.5731E-08  0.1054E-05  0.4017E-01  0.4009E-01  0.9193E-02  0.9165E-02  0.1312E+01  0.1311E+01  0.0000E+00  0.5731E-03  0.0000E+00  0.0000E+00  0.6905E-03  0.7634E-03  0.7792E-04  0.6564E-04  0.6189E-07  0.0000E+00  0.4506E+02  0.4386E+02  0.0000E+00  0.0000E+00  0.0000E+00  0.0000E+00  0.0000E+00  0.0000E+00  0.0000E+00  0.0000E+00  0.0000E+00  0.0000E+00  0.0000E+00  0.0000E+00  0.0000E+00  0.0000E+00  0.0000E+00  0.0000E+00  0.0000E+00  0.1352E+01  0.9928E-02  0.2411E+00  0.2488E+02
REACH    4        0    16  0.1189E+01  0.1183E+00  0.1183E+00  0.2786E-04  0.0000E+00  0.6068E-07  0.2480E+01  0.2427E+03  0.1683E+00  0.1680E+00  0.3780E-01  0.3772E-01  0.2424E+01  0.2424E+01  0.5892E-03  0.1319E-02  0.0000E+00  0.0000E+00  0.5047E-02  0.5166E-02  0.4245E-03  0.3854E-03  0.5385E-07  0.0000E+00  0.8325E+02  0.8241E+02  0.0000E+00  0.0000E+00  0.0000E+00  0.0000E+00  0.0000E+00  0.0000E+00  0.0000E+00  0.0000E+00  0.0000E+00  0.0000E+00  0.0000E+00  0.0000E+00  0.0000E+00  0.0000E+00  0.0000E+00  0.0000E+00  0.0000E+00  0.2593E+01  0.4288E-01  0.2372E+00  0.2488E+02
REACH    5        0    16  0.1468E+01  0.1443E+00  0.1443E+00  0.1764E-04  0.0000E+00  0.2480E+01  0.1671E+01  0.1340E+03  0.1696E+00  0.1694E+00  0.3807E-01  0.3801E-01  0.2875E+01  0.2874E+01  0.1322E-02  0.1813E-02  0.0000E+00  0.0000E+00  0.1240E-01  0.1249E-01  0.4002E-03  0.3812E-03  0.9909E-08  0.0000E+00  0.1008E+03  0.1005E+03  0.0000E+00  0.0000E+00  0.0000E+00  0.0000E+00  0.0000E+00  0.0000E+00  0.0000E+00  0.0000E+00  0.0000E+00  0.0000E+00  0.0000E+00  0.0000E+00  0.0000E+00  0.0000E+00  0.0000E+00  0.0000E+00  0.0000E+00  0.3045E+01  0.5049E-01  0.2306E+00  0.2488E+02
REACH    1        0    17  0.1194E+00  0.3344E-01  0.3344E-01  0.1328E-05  0.0000E+00  0.4461E+01  0.4461E+01  0.1544E+04  0.9753E+01  0.9751E+01  0.2144E+01  0.2144E+01  0.3561E+00  0.3561E+00  0.0000E+00  0.1195E-02  0.0000E+00  0.0000E+00  0.6052E-02  0.6484E-02  0.4417E-01  0.4369E-01  0.4845E+03  0.4839E+03  0.1608E+02  0.2677E+00  0.0000E+00  0.0000E+00  0.0000E+00  0.0000E+00  0.0000E+00  0.0000E+00  0.0000E+00  0.0000E+00  0.0000E+00  0.0000E+00  0.0000E+00  0.0000E+00  0.0000E+00  0.0000E+00  0.0000E+00  0.0000E+00  0.0000E+00  0.1011E+02  0.2150E+01  0.1232E+00  0.2420E+02
REACH    2        0    17  0.1067E+00  0.3113E-01  0.3113E-01  0.1503E-05  0.0000E+00  0.5482E+01  0.5482E+01  0.2038E+04  0.8597E+01  0.8596E+01  0.1894E+01  0.1894E+01  0.3945E+00  0.3945E+00  0.0000E+00  0.6081E-03  0.0000E+00  0.0000E+00  0.1092E-01  0.1114E-01  0.3742E-01  0.3723E-01  0.5230E+03  0.5226E+03  0.1614E+02  0.2492E+00  0.0000E+00  0.0000E+00  0.0000E+00  0.0000E+00  0.0000E+00  0.0000E+00  0.0000E+00  0.0000E+00  0.0000E+00  0.0000E+00  0.0000E+00  0.0000E+00  0.0000E+00  0.0000E+00  0.0000E+00  0.0000E+00  0.0000E+00  0.8991E+01  0.1905E+01  0.1467E+00  0.2420E+02
REACH    3        0    17  0.6245E+00  0.1815E+00  0.1815E+00  0.3288E-04  0.0000E+00  0.4683E+02  0.4683E+02  0.2986E+04  0.4855E+02  0.4849E+02  0.1074E+02  0.1072E+02  0.2483E+01  0.2482E+01  0.0000E+00  0.4469E-01  0.0000E+00  0.0000E+00  0.6219E-01  0.7848E-01  0.2186E+00  0.2054E+00  0.4105E+04  0.4068E+04  0.8595E+02  0.1453E+01  0.0000E+00  0.0000E+00  0.0000E+00  0.0000E+00  0.0000E+00  0.0000E+00  0.0000E+00  0.0000E+00  0.0000E+00  0.0000E+00  0.0000E+00  0.0000E+00  0.0000E+00  0.0000E+00  0.0000E+00  0.0000E+00  0.0000E+00  0.5102E+02  0.1080E+02  0.1583E+00  0.2420E+02
REACH    4        0    17  0.1189E+01  0.3448E+00  0.3447E+00  0.3417E-04  0.0000E+00  0.8791E+02  0.1082E+02  0.3631E+03  0.9674E+02  0.9665E+02  0.2136E+02  0.2133E+02  0.4590E+01  0.4589E+01  0.4589E-01  0.1101E+00  0.0000E+00  0.6754E-04  0.1253E+00  0.1487E+00  0.4377E+00  0.4225E+00  0.8271E+04  0.8218E+04  0.6683E+02  0.2760E+01  0.0000E+00  0.0000E+00  0.0000E+00  0.0000E+00  0.0000E+00  0.0000E+00  0.0000E+00  0.0000E+00  0.0000E+00  0.0000E+00  0.0000E+00  0.0000E+00  0.0000E+00  0.0000E+00  0.0000E+00  0.0000E+00  0.0000E+00  0.1013E+03  0.2148E+02  0.1541E+00  0.2420E+02
REACH    5        0    17  0.1468E+01  0.4274E+00  0.4273E+00  0.1142E-03  0.0000E+00  0.2262E+02  0.3524E+01  0.9544E+02  0.1157E+03  0.1155E+03  0.2552E+02  0.2545E+02  0.5455E+01  0.5453E+01  0.1108E+00  0.2544E+00  0.6754E-04  0.2026E-03  0.1939E+00  0.2464E+00  0.5059E+00  0.4883E+00  0.9355E+04  0.9241E+04  0.3244E+02  0.3421E+01  0.0000E+00  0.0000E+00  0.0000E+00  0.0000E+00  0.0000E+00  0.0000E+00  0.0000E+00  0.0000E+00  0.0000E+00  0.0000E+00  0.0000E+00  0.0000E+00  0.0000E+00  0.0000E+00  0.0000E+00  0.0000E+00  0.0000E+00  0.1212E+03  0.2570E+02  0.1477E+00  0.2420E+02
REACH    1        0    18  0.1194E+00  0.8338E-02  0.8337E-02  0.8713E-06  0.0000E+00  0.2760E-08  0.2760E-08  0.3831E-05  0.7858E-04  0.7854E-04  0.1691E-04  0.1690E-04  0.1223E+00  0.1222E+00  0.0000E+00  0.1634E-04  0.0000E+00  0.0000E+00  0.8394E-05  0.1003E-04  0.1095E-06  0.1055E-06  0.0000E+00  0.0000E+00  0.5946E+01  0.5788E+01  0.0000E+00  0.0000E+00  0.0000E+00  0.0000E+00  0.0000E+00  0.0000E+00  0.0000E+00  0.0000E+00  0.0000E+00  0.0000E+00  0.0000E+00  0.0000E+00  0.0000E+00  0.0000E+00  0.0000E+00  0.0000E+00  0.0000E+00  0.1223E+00  0.2693E-04  0.1697E+00  0.2506E+02
REACH    2        0    18  0.1067E+00  0.6812E-02  0.6812E-02  0.1799E-06  0.0000E+00  0.3998E-08  0.3998E-08  0.6793E-05  0.1067E-07  0.0000E+00  0.3201E-07  0.0000E+00  0.1354E+00  0.1354E+00  0.0000E+00  0.3319E-05  0.0000E+00  0.0000E+00  0.1697E-03  0.1700E-03  0.7789E-06  0.7718E-06  0.0000E+00  0.0000E+00  0.4858E+01  0.4729E+01  0.0000E+00  0.0000E+00  0.0000E+00  0.0000E+00  0.0000E+00  0.0000E+00  0.0000E+00  0.0000E+00  0.0000E+00  0.0000E+00  0.0000E+00  0.0000E+00  0.0000E+00  0.0000E+00  0.0000E+00  0.0000E+00  0.0000E+00  0.1354E+00  0.1700E-03  0.2300E+00  0.2506E+02
REACH    3        0    18  0.6245E+00  0.4306E-01  0.4303E-01  0.2276E-04  0.0000E+00  0.5731E-08  0.5731E-08  0.1541E-05  0.4716E-03  0.4705E-03  0.1015E-03  0.1012E-03  0.8468E+00  0.8464E+00  0.0000E+00  0.5072E-03  0.0000E+00  0.0000E+00  0.1311E-04  0.3930E-04  0.7753E-07  0.0000E+00  0.0000E+00  0.0000E+00  0.3070E+02  0.2987E+02  0.0000E+00  0.0000E+00  0.0000E+00  0.0000E+00  0.0000E+00  0.0000E+00  0.0000E+00  0.0000E+00  0.0000E+00  0.0000E+00  0.0000E+00  0.0000E+00  0.0000E+00  0.0000E+00  0.0000E+00  0.0000E+00  0.0000E+00  0.8474E+00  0.1405E-03  0.2276E+00  0.2506E+02
REACH    4        0    18  0.1189E+01  0.8002E-01  0.7999E-01  0.2468E-04  0.0000E+00  0.2441E-07  0.1448E+01  0.2095E+03  0.6268E-03  0.6257E-03  0.1349E-03  0.1346E-03  0.1569E+01  0.1569E+01  0.5236E-03  0.1079E-02  0.0000E+00  0.0000E+00  0.6686E-03  0.7243E-03  0.3688E-05  0.3200E-05  0.0000E+00  0.0000E+00  0.5609E+02  0.5553E+02  0.0000E+00  0.0000E+00  0.0000E+00  0.0000E+00  0.0000E+00  0.0000E+00  0.0000E+00  0.0000E+00  0.0000E+00  0.0000E+00  0.0000E+00  0.0000E+00  0.0000E+00  0.0000E+00  0.0000E+00  0.0000E+00  0.0000E+00  0.1570E+01  0.8589E-03  0.2270E+00  0.2506E+02
REACH    5        0    18  0.1468E+01  0.9605E-01  0.9603E-01  0.1527E-04  0.0000E+00  0.1448E+01  0.9849E+00  0.1187E+03  0.6257E-03  0.6249E-03  0.1346E-03  0.1344E-03  0.1866E+01  0.1865E+01  0.1082E-02  0.1412E-02  0.0000E+00  0.0000E+00  0.2499E-02  0.2532E-02  0.7767E-05  0.7238E-05  0.0000E+00  0.0000E+00  0.6685E+02  0.6666E+02  0.0000E+00  0.0000E+00  0.0000E+00  0.0000E+00  0.0000E+00  0.0000E+00  0.0000E+00  0.0000E+00  0.0000E+00  0.0000E+00  0.0000E+00  0.0000E+00  0.0000E+00  0.0000E+00  0.0000E+00  0.0000E+00  0.0000E+00  0.1867E+01  0.2666E-02  0.2248E+00  0.2506E+02
REACH    1        0    19  0.1194E+00  0.9317E-02  0.9316E-02  0.7636E-06  0.0000E+00  0.4582E-01  0.4582E-01  0.5692E+02  0.9424E-01  0.9421E-01  0.2072E-01  0.2071E-01  0.1068E+00  0.1068E+00  0.0000E+00  0.3660E-04  0.0000E+00  0.0000E+00  0.5411E-04  0.6330E-04  0.4162E-06  0.4026E-06  0.1422E+00  0.1419E+00  0.6639E+01  0.6284E+01  0.0000E+00  0.0000E+00  0.0000E+00  0.0000E+00  0.0000E+00  0.0000E+00  0.0000E+00  0.0000E+00  0.0000E+00  0.0000E+00  0.0000E+00  0.0000E+00  0.0000E+00  0.0000E+00  0.0000E+00  0.0000E+00  0.0000E+00  0.2010E+00  0.2077E-01  0.1327E+00  0.2465E+02
REACH    2        0    19  0.1067E+00  0.8513E-02  0.8513E-02  0.1836E-06  0.0000E+00  0.5562E-01  0.5562E-01  0.7562E+02  0.8172E-01  0.8171E-01  0.1800E-01  0.1800E-01  0.9588E-01  0.9588E-01  0.0000E+00  0.9493E-05  0.0000E+00  0.0000E+00  0.1801E-02  0.1803E-02  0.3193E-05  0.3167E-05  0.1522E+00  0.1521E+00  0.6070E+01  0.5706E+01  0.0000E+00  0.0000E+00  0.0000E+00  0.0000E+00  0.0000E+00  0.0000E+00  0.0000E+00  0.0000E+00  0.0000E+00  0.0000E+00  0.0000E+00  0.0000E+00  0.0000E+00  0.0000E+00  0.0000E+00  0.0000E+00  0.0000E+00  0.1776E+00  0.1981E-01  0.1303E+00  0.2465E+02
REACH    3        0    19  0.6245E+00  0.4924E-01  0.4922E-01  0.2111E-04  0.0000E+00  0.8875E+00  0.8875E+00  0.2087E+03  0.5588E+00  0.5573E+00  0.1248E+00  0.1243E+00  0.6447E+00  0.6444E+00  0.0000E+00  0.1505E-02  0.0000E+00  0.0000E+00  0.2363E-02  0.2783E-02  0.4733E-03  0.3785E-03  0.3741E+02  0.3675E+02  0.3471E+02  0.5687E+01  0.0000E+00  0.0000E+00  0.0000E+00  0.0000E+00  0.0000E+00  0.0000E+00  0.0000E+00  0.0000E+00  0.0000E+00  0.0000E+00  0.0000E+00  0.0000E+00  0.0000E+00  0.0000E+00  0.0000E+00  0.0000E+00  0.0000E+00  0.1203E+01  0.1271E+00  0.1515E+00  0.2465E+02
REACH    4        0    19  0.1189E+01  0.9392E-01  0.9390E-01  0.2164E-04  0.0000E+00  0.2846E+01  0.1995E+01  0.2459E+03  0.1253E+01  0.1251E+01  0.2785E+00  0.2779E+00  0.1179E+01  0.1179E+01  0.1541E-02  0.3322E-02  0.0000E+00  0.0000E+00  0.8929E-02  0.9442E-02  0.2415E-02  0.2146E-02  0.1782E+03  0.1764E+03  0.3683E+02  0.1375E+01  0.0000E+00  0.0000E+00  0.0000E+00  0.0000E+00  0.0000E+00  0.0000E+00  0.0000E+00  0.0000E+00  0.0000E+00  0.0000E+00  0.0000E+00  0.0000E+00  0.0000E+00  0.0000E+00  0.0000E+00  0.0000E+00  0.0000E+00  0.2434E+01  0.2874E+00  0.1453E+00  0.2465E+02
REACH    5        0    19  0.1468E+01  0.1165E+00  0.1165E+00  0.1382E-04  0.0000E+00  0.2117E+01  0.1246E+01  0.1238E+03  0.1440E+01  0.1438E+01  0.3194E+00  0.3188E+00  0.1391E+01  0.1391E+01  0.3331E-02  0.5056E-02  0.0000E+00  0.0000E+00  0.1901E-01  0.1956E-01  0.2165E-02  0.2042E-02  0.1768E+03  0.1752E+03  0.1712E+02  0.2887E+01  0.0000E+00  0.0000E+00  0.0000E+00  0.0000E+00  0.0000E+00  0.0000E+00  0.0000E+00  0.0000E+00  0.0000E+00  0.0000E+00  0.0000E+00  0.0000E+00  0.0000E+00  0.0000E+00  0.0000E+00  0.0000E+00  0.0000E+00  0.2834E+01  0.3384E+00  0.1382E+00  0.2465E+02
REACH    1        0    20  0.1194E+00  0.8724E-02  0.8723E-02  0.1570E-05  0.0000E+00  0.2356E-08  0.2356E-08  0.3126E-05  0.7901E-05  0.7897E-05  0.1728E-05  0.1727E-05  0.1192E+00  0.1192E+00  0.0000E+00  0.1632E-04  0.0000E+00  0.0000E+00  0.2855E-05  0.4487E-05  0.7948E-08  0.0000E+00  0.0000E+00  0.0000E+00  0.6221E+01  0.6055E+01  0.0000E+00  0.0000E+00  0.0000E+00  0.0000E+00  0.0000E+00  0.0000E+00  0.0000E+00  0.0000E+00  0.0000E+00  0.0000E+00  0.0000E+00  0.0000E+00  0.0000E+00  0.0000E+00  0.0000E+00  0.0000E+00  0.0000E+00  0.1192E+00  0.6213E-05  0.1582E+00  0.2506E+02
REACH    2        0    20  0.1067E+00  0.7767E-02  0.7767E-02  0.3231E-06  0.0000E+00  0.3998E-08  0.3998E-08  0.5958E-05  0.1067E-07  0.0000E+00  0.3201E-07  0.0000E+00  0.1213E+00  0.1213E+00  0.0000E+00  0.3319E-05  0.0000E+00  0.0000E+00  0.1323E-02  0.1323E-02  0.2518E-05  0.2498E-05  0.0000E+00  0.0000E+00  0.5539E+01  0.5391E+01  0.0000E+00  0.0000E+00  0.0000E+00  0.0000E+00  0.0000E+00  0.0000E+00  0.0000E+00  0.0000E+00  0.0000E+00  0.0000E+00  0.0000E+00  0.0000E+00  0.0000E+00  0.0000E+00  0.0000E+00  0.0000E+00  0.0000E+00  0.1213E+00  0.1323E-02  0.1807E+00  0.2506E+02
REACH    3        0    20  0.6245E+00  0.4618E-01  0.4614E-01  0.4367E-04  0.0000E+00  0.5731E-08  0.5731E-08  0.1438E-05  0.2664E-01  0.2656E-01  0.6125E-02  0.6097E-02  0.8013E+00  0.8005E+00  0.0000E+00  0.5748E-03  0.0000E+00  0.0000E+00  0.7943E-03  0.8657E-03  0.7873E-04  0.6171E-04  0.8944E-07  0.0000E+00  0.3293E+02  0.3203E+02  0.0000E+00  0.0000E+00  0.0000E+00  0.0000E+00  0.0000E+00  0.0000E+00  0.0000E+00  0.0000E+00  0.0000E+00  0.0000E+00  0.0000E+00  0.0000E+00  0.0000E+00  0.0000E+00  0.0000E+00  0.0000E+00  0.0000E+00  0.8277E+00  0.6963E-02  0.2008E+00  0.2506E+02
REACH    4        0    20  0.1189E+01  0.8728E-01  0.8724E-01  0.4437E-04  0.0000E+00  0.2360E-07  0.1722E+01  0.2285E+03  0.1093E+00  0.1091E+00  0.2464E-01  0.2457E-01  0.1468E+01  0.1468E+01  0.5911E-03  0.1264E-02  0.0000E+00  0.0000E+00  0.5292E-02  0.5390E-02  0.4248E-03  0.3732E-03  0.7708E-07  0.0000E+00  0.6120E+02  0.6056E+02  0.0000E+00  0.0000E+00  0.0000E+00  0.0000E+00  0.0000E+00  0.0000E+00  0.0000E+00  0.0000E+00  0.0000E+00  0.0000E+00  0.0000E+00  0.0000E+00  0.0000E+00  0.0000E+00  0.0000E+00  0.0000E+00  0.0000E+00  0.1578E+01  0.2996E-01  0.1947E+00  0.2506E+02
REACH    5        0    20  0.1468E+01  0.1073E+00  0.1073E+00  0.2824E-04  0.0000E+00  0.1722E+01  0.1058E+01  0.1141E+03  0.1103E+00  0.1101E+00  0.2483E-01  0.2477E-01  0.1734E+01  0.1734E+01  0.1267E-02  0.1720E-02  0.0000E+00  0.0000E+00  0.1266E-01  0.1274E-01  0.3870E-03  0.3628E-03  0.1482E-07  0.0000E+00  0.7474E+02  0.7449E+02  0.0000E+00  0.0000E+00  0.0000E+00  0.0000E+00  0.0000E+00  0.0000E+00  0.0000E+00  0.0000E+00  0.0000E+00  0.0000E+00  0.0000E+00  0.0000E+00  0.0000E+00  0.0000E+00  0.0000E+00  0.0000E+00  0.0000E+00  0.1846E+01  0.3751E-01  0.1870E+00  0.2506E+02
REACH    1        0    21  0.1194E+00  0.3466E-02  0.3465E-02  0.1288E-05  0.0000E+00  0.2356E-08  0.2356E-08  0.7870E-05  0.4713E-05  0.4709E-05  0.1044E-05  0.1043E-05  0.4127E-01  0.4126E-01  0.0000E+00  0.1453E-04  0.0000E+00  0.0000E+00  0.1722E-05  0.3174E-05  0.1939E-08  0.0000E+00  0.0000E+00  0.0000E+00  0.2477E+01  0.2411E+01  0.0000E+00  0.0000E+00  0.0000E+00  0.0000E+00  0.0000E+00  0.0000E+00  0.0000E+00  0.0000E+00  0.0000E+00  0.0000E+00  0.0000E+00  0.0000E+00  0.0000E+00  0.0000E+00  0.0000E+00  0.0000E+00  0.0000E+00  0.4128E-01  0.4217E-05  0.1378E+00  0.2495E+02
REACH    2        0    21  0.1067E+00  0.2696E-02  0.2696E-02  0.2636E-06  0.0000E+00  0.3998E-08  0.3998E-08  0.1717E-04  0.1067E-07  0.0000E+00  0.3201E-07  0.0000E+00  0.4183E-01  0.4183E-01  0.0000E+00  0.2936E-05  0.0000E+00  0.0000E+00  0.7888E-04  0.7917E-04  0.3949E-06  0.3868E-06  0.0000E+00  0.0000E+00  0.1926E+01  0.1875E+01  0.0000E+00  0.0000E+00  0.0000E+00  0.0000E+00  0.0000E+00  0.0000E+00  0.0000E+00  0.0000E+00  0.0000E+00  0.0000E+00  0.0000E+00  0.0000E+00  0.0000E+00  0.0000E+00  0.0000E+00  0.0000E+00  0.0000E+00  0.4183E-01  0.7917E-04  0.1796E+00  0.2495E+02
REACH    3        0    21  0.6245E+00  0.1756E-01  0.1753E-01  0.3749E-04  0.0000E+00  0.5731E-08  0.5731E-08  0.3785E-05  0.1333E-06  0.0000E+00  0.2023E-06  0.0000E+00  0.2778E+00  0.2772E+00  0.0000E+00  0.4850E-03  0.0000E+00  0.0000E+00  0.1488E-06  0.0000E+00  0.3120E-14  0.0000E+00  0.0000E+00  0.0000E+00  0.1255E+02  0.1219E+02  0.0000E+00  0.0000E+00  0.0000E+00  0.0000E+00  0.0000E+00  0.0000E+00  0.0000E+00  0.0000E+00  0.0000E+00  0.0000E+00  0.0000E+00  0.0000E+00  0.0000E+00  0.0000E+00  0.0000E+00  0.0000E+00  0.0000E+00  0.2776E+00  0.0000E+00  0.1830E+00  0.2495E+02
REACH    4        0    21  0.1189E+01  0.3240E-01  0.3236E-01  0.4156E-04  0.0000E+00  0.2360E-07  0.3230E+00  0.1155E+03  0.9456E-05  0.9448E-05  0.2185E-05  0.0000E+00  0.5076E+00  0.5070E+00  0.4995E-03  0.1035E-02  0.0000E+00  0.3287E-05  0.2757E-03  0.3293E-03  0.1748E-05  0.1196E-05  0.0000E+00  0.0000E+00  0.2276E+02  0.2252E+02  0.0000E+00  0.0000E+00  0.0000E+00  0.0000E+00  0.0000E+00  0.0000E+00  0.0000E+00  0.0000E+00  0.0000E+00  0.0000E+00  0.0000E+00  0.0000E+00  0.0000E+00  0.0000E+00  0.0000E+00  0.0000E+00  0.0000E+00  0.5080E+00  0.3293E-03  0.1813E+00  0.2495E+02
REACH    5        0    21  0.1468E+01  0.3865E-01  0.3863E-01  0.2426E-04  0.0000E+00  0.3230E+00  0.2943E+00  0.8817E+02  0.9465E-05  0.9482E-05  0.5115E-07  0.0000E+00  0.5990E+00  0.5986E+00  0.1038E-02  0.1346E-02  0.3287E-05  0.4423E-05  0.9436E-03  0.9742E-03  0.3653E-05  0.3086E-05  0.0000E+00  0.0000E+00  0.2696E+02  0.2687E+02  0.0000E+00  0.0000E+00  0.0000E+00  0.0000E+00  0.0000E+00  0.0000E+00  0.0000E+00  0.0000E+00  0.0000E+00  0.0000E+00  0.0000E+00  0.0000E+00  0.0000E+00  0.0000E+00  0.0000E+00  0.0000E+00  0.0000E+00  0.5999E+00  0.9742E-03  0.1793E+00  0.2495E+02
REACH    1        0    22  0.1194E+00  0.4366E-02  0.4364E-02  0.1266E-05  0.0000E+00  0.2356E-08  0.2356E-08  0.6248E-05  0.2844E-05  0.2842E-05  0.6431E-06  0.6425E-06  0.1756E-01  0.1755E-01  0.0000E+00  0.1426E-04  0.0000E+00  0.0000E+00  0.1042E-05  0.2468E-05  0.4521E-09  0.0000E+00  0.0000E+00  0.0000E+00  0.3135E+01  0.3052E+01  0.0000E+00  0.0000E+00  0.0000E+00  0.0000E+00  0.0000E+00  0.0000E+00  0.0000E+00  0.0000E+00  0.0000E+00  0.0000E+00  0.0000E+00  0.0000E+00  0.0000E+00  0.0000E+00  0.0000E+00  0.0000E+00  0.0000E+00  0.1757E-01  0.3111E-05  0.4655E-01  0.2469E+02
REACH    2        0    22  0.1067E+00  0.4244E-02  0.4243E-02  0.3094E-06  0.0000E+00  0.3998E-08  0.3998E-08  0.1091E-04  0.1067E-07  0.0000E+00  0.3201E-07  0.0000E+00  0.1559E-01  0.1559E-01  0.0000E+00  0.3231E-05  0.0000E+00  0.0000E+00  0.1226E-02  0.1227E-02  0.3361E-05  0.3312E-05  0.0000E+00  0.0000E+00  0.3047E+01  0.2968E+01  0.0000E+00  0.0000E+00  0.0000E+00  0.0000E+00  0.0000E+00  0.0000E+00  0.0000E+00  0.0000E+00  0.0000E+00  0.0000E+00  0.0000E+00  0.0000E+00  0.0000E+00  0.0000E+00  0.0000E+00  0.0000E+00  0.0000E+00  0.1560E-01  0.1227E-02  0.4253E-01  0.2469E+02
REACH    3        0    22  0.6245E+00  0.2324E-01  0.2320E-01  0.3925E-04  0.0000E+00  0.7094E-01  0.7094E-01  0.3539E+02  0.1500E-01  0.1493E-01  0.3424E-02  0.3401E-02  0.1161E+00  0.1159E+00  0.0000E+00  0.5338E-03  0.0000E+00  0.0000E+00  0.4194E-03  0.4836E-03  0.7652E-04  0.4537E-04  0.6996E+01  0.6801E+01  0.1663E+02  0.7845E+01  0.0000E+00  0.0000E+00  0.0000E+00  0.0000E+00  0.0000E+00  0.0000E+00  0.0000E+00  0.0000E+00  0.0000E+00  0.0000E+00  0.0000E+00  0.0000E+00  0.0000E+00  0.0000E+00  0.0000E+00  0.0000E+00  0.0000E+00  0.1314E+00  0.3885E-02  0.5784E-01  0.2469E+02
REACH    4        0    22  0.1189E+01  0.4509E-01  0.4505E-01  0.4081E-04  0.0000E+00  0.3409E+00  0.6257E+00  0.1608E+03  0.6852E-01  0.6834E-01  0.1542E-01  0.1536E-01  0.2049E+00  0.2047E+00  0.5480E-03  0.1179E-02  0.0000E+00  0.0000E+00  0.4550E-02  0.4638E-02  0.4031E-03  0.3122E-03  0.3423E+02  0.3370E+02  0.2330E+02  0.5192E+01  0.0000E+00  0.0000E+00  0.0000E+00  0.0000E+00  0.0000E+00  0.0000E+00  0.0000E+00  0.0000E+00  0.0000E+00  0.0000E+00  0.0000E+00  0.0000E+00  0.0000E+00  0.0000E+00  0.0000E+00  0.0000E+00  0.0000E+00  0.2742E+00  0.2000E-01  0.5259E-01  0.2469E+02
REACH    5        0    22  0.1468E+01  0.5697E-01  0.5695E-01  0.2463E-04  0.0000E+00  0.6258E+00  0.5024E+00  0.1021E+03  0.6876E-01  0.6864E-01  0.1545E-01  0.1541E-01  0.2394E+00  0.2393E+00  0.1183E-02  0.1572E-02  0.0000E+00  0.0000E+00  0.1118E-01  0.1124E-01  0.3301E-03  0.2947E-03  0.3370E+02  0.3331E+02  0.1367E+02  0.9673E+01  0.0000E+00  0.0000E+00  0.0000E+00  0.0000E+00  0.0000E+00  0.0000E+00  0.0000E+00  0.0000E+00  0.0000E+00  0.0000E+00  0.0000E+00  0.0000E+00  0.0000E+00  0.0000E+00  0.0000E+00  0.0000E+00  0.0000E+00  0.3095E+00  0.2665E-01  0.4863E-01  0.2469E+02
REACH    1        0    23  0.1194E+00  0.1686E-02  0.1685E-02  0.9869E-06  0.0000E+00  0.2356E-08  0.2356E-08  0.1619E-04  0.1719E-05  0.1717E-05  0.4019E-06  0.4014E-06  0.6190E-02  0.6187E-02  0.0000E+00  0.1298E-04  0.0000E+00  0.0000E+00  0.6331E-06  0.1898E-05  0.1026E-09  0.0000E+00  0.0000E+00  0.0000E+00  0.1202E+01  0.1169E+01  0.0000E+00  0.0000E+00  0.0000E+00  0.0000E+00  0.0000E+00  0.0000E+00  0.0000E+00  0.0000E+00  0.0000E+00  0.0000E+00  0.0000E+00  0.0000E+00  0.0000E+00  0.0000E+00  0.0000E+00  0.0000E+00  0.0000E+00  0.6201E-02  0.2300E-05  0.4251E-01  0.2506E+02
REACH    2        0    23  0.1067E+00  0.1187E-02  0.1187E-02  0.2479E-06  0.0000E+00  0.3998E-08  0.3998E-08  0.3898E-04  0.1067E-07  0.0000E+00  0.3201E-07  0.0000E+00  0.5328E-02  0.5327E-02  0.0000E+00  0.2960E-05  0.0000E+00  0.0000E+00  0.7120E-06  0.1008E-05  0.1355E-08  0.0000E+00  0.0000E+00  0.0000E+00  0.8466E+00  0.8240E+00  0.0000E+00  0.0000E+00  0.0000E+00  0.0000E+00  0.0000E+00  0.0000E+00  0.0000E+00  0.0000E+00  0.0000E+00  0.0000E+00  0.0000E+00  0.0000E+00  0.0000E+00  0.0000E+00  0.0000E+00  0.0000E+00  0.0000E+00  0.5330E-02  0.1008E-05  0.5194E-01  0.2506E+02
REACH    3        0    23  0.6245E+00  0.7949E-02  0.7914E-02  0.3523E-04  0.0000E+00  0.5731E-08  0.5731E-08  0.8382E-05  0.6270E-07  0.0000E+00  0.1873E-06  0.0000E+00  0.3945E-01  0.3928E-01  0.0000E+00  0.4878E-03  0.0000E+00  0.0000E+00  0.6636E-07  0.0000E+00  0.3148E-18  0.0000E+00  0.0000E+00  0.0000E+00  0.5669E+01  0.5494E+01  0.0000E+00  0.0000E+00  0.0000E+00  0.0000E+00  0.0000E+00  0.0000E+00  0.0000E+00  0.0000E+00  0.0000E+00  0.0000E+00  0.0000E+00  0.0000E+00  0.0000E+00  0.0000E+00  0.0000E+00  0.0000E+00  0.0000E+00  0.3976E-01  0.0000E+00  0.5744E-01  0.2506E+02
REACH    4        0    23  0.1189E+01  0.1467E-01  0.1463E-01  0.3751E-04  0.0000E+00  0.2360E-07  0.1013E+00  0.8016E+02  0.3469E-05  0.3448E-05  0.9009E-06  0.0000E+00  0.6970E-01  0.6952E-01  0.5007E-03  0.1027E-02  0.0000E+00  0.4786E-05  0.1614E-04  0.4830E-04  0.5699E-07  0.0000E+00  0.0000E+00  0.0000E+00  0.1028E+02  0.1016E+02  0.0000E+00  0.0000E+00  0.0000E+00  0.0000E+00  0.0000E+00  0.0000E+00  0.0000E+00  0.0000E+00  0.0000E+00  0.0000E+00  0.0000E+00  0.0000E+00  0.0000E+00  0.0000E+00  0.0000E+00  0.0000E+00  0.0000E+00  0.7055E-01  0.4830E-04  0.5499E-01  0.2506E+02
REACH    5        0    23  0.1468E+01  0.1739E-01  0.1737E-01  0.2205E-04  0.0000E+00  0.1013E+00  0.8084E-01  0.5387E+02  0.3465E-05  0.3459E-05  0.5115E-07  0.0000E+00  0.8131E-01  0.8121E-01  0.1030E-02  0.1330E-02  0.4786E-05  0.1196E-04  0.2148E-03  0.2455E-03  0.4485E-06  0.2981E-06  0.0000E+00  0.0000E+00  0.1210E+02  0.1206E+02  0.0000E+00  0.0000E+00  0.0000E+00  0.0000E+00  0.0000E+00  0.0000E+00  0.0000E+00  0.0000E+00  0.0000E+00  0.0000E+00  0.0000E+00  0.0000E+00  0.0000E+00  0.0000E+00  0.0000E+00  0.0000E+00  0.0000E+00  0.8255E-01  0.2455E-03  0.5412E-01  0.2506E+02
REACH    1        0    24  0.1194E+00  0.7715E-03  0.7704E-03  0.1122E-05  0.0000E+00  0.2356E-08  0.2356E-08  0.3540E-04  0.1041E-05  0.1039E-05  0.2565E-06  0.2558E-06  0.2291E-02  0.2288E-02  0.0000E+00  0.1263E-04  0.0000E+00  0.0000E+00  0.3864E-06  0.1158E-05  0.2291E-10  0.0000E+00  0.0000E+00  0.0000E+00  0.5540E+00  0.5388E+00  0.0000E+00  0.0000E+00  0.0000E+00  0.0000E+00  0.0000E+00  0.0000E+00  0.0000E+00  0.0000E+00  0.0000E+00  0.0000E+00  0.0000E+00  0.0000E+00  0.0000E+00  0.0000E+00  0.0000E+00  0.0000E+00  0.0000E+00  0.2301E-02  0.1413E-05  0.0000E+00  0.2469E+02
REACH    2        0    24  0.1067E+00  0.4097E-03  0.4095E-03  0.2266E-06  0.0000E+00  0.3998E-08  0.3998E-08  0.1130E-03  0.1067E-07  0.0000E+00  0.3201E-07  0.0000E+00  0.1830E-02  0.1829E-02  0.0000E+00  0.2531E-05  0.0000E+00  0.0000E+00  0.1157E-07  0.0000E+00  0.2711E-14  0.0000E+00  0.0000E+00  0.0000E+00  0.2942E+00  0.2864E+00  0.0000E+00  0.0000E+00  0.0000E+00  0.0000E+00  0.0000E+00  0.0000E+00  0.0000E+00  0.0000E+00  0.0000E+00  0.0000E+00  0.0000E+00  0.0000E+00  0.0000E+00  0.0000E+00  0.0000E+00  0.0000E+00  0.0000E+00  0.1832E-02  0.0000E+00  0.0000E+00  0.2469E+02
REACH    3        0    24  0.6245E+00  0.2787E-02  0.2750E-02  0.3754E-04  0.0000E+00  0.5731E-08  0.5731E-08  0.2412E-04  0.6246E-07  0.0000E+00  0.1873E-06  0.0000E+00  0.1370E-01  0.1351E-01  0.0000E+00  0.4544E-03  0.0000E+00  0.0000E+00  0.6333E-07  0.0000E+00  0.3839E-19  0.0000E+00  0.0000E+00  0.0000E+00  0.2001E+01  0.1923E+01  0.0000E+00  0.0000E+00  0.0000E+00  0.0000E+00  0.0000E+00  0.0000E+00  0.0000E+00  0.0000E+00  0.0000E+00  0.0000E+00  0.0000E+00  0.0000E+00  0.0000E+00  0.0000E+00  0.0000E+00  0.0000E+00  0.0000E+00  0.1397E-01  0.0000E+00  0.5688E-01  0.2469E+02
REACH    4        0    24  0.1189E+01  0.5278E-02  0.5237E-02  0.4082E-04  0.0000E+00  0.2360E-07  0.2668E-01  0.5897E+02  0.2112E-05  0.2086E-05  0.6098E-06  0.6005E-06  0.2416E-01  0.2397E-01  0.4670E-03  0.9614E-03  0.0000E+00  0.5858E-05  0.3732E-05  0.1111E-04  0.8927E-08  0.0000E+00  0.0000E+00  0.0000E+00  0.3724E+01  0.3662E+01  0.0000E+00  0.0000E+00  0.0000E+00  0.0000E+00  0.0000E+00  0.0000E+00  0.0000E+00  0.0000E+00  0.0000E+00  0.0000E+00  0.0000E+00  0.0000E+00  0.0000E+00  0.0000E+00  0.0000E+00  0.0000E+00  0.0000E+00  0.2494E-01  0.1171E-04  0.5297E-01  0.2469E+02
REACH    5        0    24  0.1468E+01  0.6171E-02  0.6147E-02  0.2414E-04  0.0000E+00  0.2668E-01  0.1552E-01  0.2922E+02  0.2103E-05  0.2085E-05  0.6516E-06  0.6442E-06  0.2804E-01  0.2793E-01  0.9639E-03  0.1243E-02  0.5858E-05  0.1751E-04  0.2656E-04  0.5593E-04  0.3883E-07  0.0000E+00  0.0000E+00  0.0000E+00  0.4325E+01  0.4298E+01  0.0000E+00  0.0000E+00  0.0000E+00  0.0000E+00  0.0000E+00  0.0000E+00  0.0000E+00  0.0000E+00  0.0000E+00  0.0000E+00  0.0000E+00  0.0000E+00  0.0000E+00  0.0000E+00  0.0000E+00  0.0000E+00  0.0000E+00  0.2919E-01  0.5657E-04  0.5259E-01  0.2469E+02
REACH    1        0    25  0.1194E+00  0.2553E-02  0.2552E-02  0.1559E-05  0.0000E+00  0.2356E-08  0.2356E-08  0.1069E-04  0.6323E-06  0.6315E-06  0.1688E-06  0.0000E+00  0.2559E-02  0.2557E-02  0.0000E+00  0.1512E-04  0.0000E+00  0.0000E+00  0.2377E-06  0.7126E-06  0.5073E-11  0.0000E+00  0.0000E+00  0.0000E+00  0.1806E+01  0.1755E+01  0.0000E+00  0.0000E+00  0.0000E+00  0.0000E+00  0.0000E+00  0.0000E+00  0.0000E+00  0.0000E+00  0.0000E+00  0.0000E+00  0.0000E+00  0.0000E+00  0.0000E+00  0.0000E+00  0.0000E+00  0.0000E+00  0.0000E+00  0.2573E-02  0.7126E-06  0.1160E-01  0.2551E+02
REACH    2        0    25  0.1067E+00  0.2630E-02  0.2630E-02  0.3188E-06  0.0000E+00  0.3998E-08  0.3998E-08  0.1760E-04  0.1067E-07  0.0000E+00  0.3201E-07  0.0000E+00  0.2388E-02  0.2388E-02  0.0000E+00  0.3057E-05  0.0000E+00  0.0000E+00  0.9239E-03  0.9241E-03  0.4530E-05  0.4434E-05  0.0000E+00  0.0000E+00  0.1860E+01  0.1809E+01  0.0000E+00  0.0000E+00  0.0000E+00  0.0000E+00  0.0000E+00  0.0000E+00  0.0000E+00  0.0000E+00  0.0000E+00  0.0000E+00  0.0000E+00  0.0000E+00  0.0000E+00  0.0000E+00  0.0000E+00  0.0000E+00  0.0000E+00  0.2391E-02  0.9241E-03  0.1051E-01  0.2551E+02
REACH    3        0    25  0.6245E+00  0.1362E-01  0.1357E-01  0.4545E-04  0.0000E+00  0.4449E-01  0.4449E-01  0.3794E+02  0.7158E-02  0.7108E-02  0.1610E-02  0.1596E-02  0.2817E-01  0.2807E-01  0.0000E+00  0.5266E-03  0.0000E+00  0.0000E+00  0.1519E-04  0.4542E-04  0.3393E-04  0.1095E-04  0.3612E+01  0.3492E+01  0.9606E+01  0.4801E+01  0.0000E+00  0.0000E+00  0.0000E+00  0.0000E+00  0.0000E+00  0.0000E+00  0.0000E+00  0.0000E+00  0.0000E+00  0.0000E+00  0.0000E+00  0.0000E+00  0.0000E+00  0.0000E+00  0.0000E+00  0.0000E+00  0.0000E+00  0.3571E-01  0.1641E-02  0.2394E-01  0.2551E+02
REACH    4        0    25  0.1189E+01  0.2689E-01  0.2684E-01  0.4824E-04  0.0000E+00  0.2157E+00  0.3407E+00  0.1469E+03  0.3934E-01  0.3919E-01  0.8836E-02  0.8792E-02  0.4228E-01  0.4220E-01  0.5418E-03  0.1156E-02  0.0000E+00  0.2875E-05  0.3081E-02  0.3155E-02  0.1826E-03  0.1144E-03  0.1768E+02  0.1735E+02  0.1407E+02  0.3631E+01  0.0000E+00  0.0000E+00  0.0000E+00  0.0000E+00  0.0000E+00  0.0000E+00  0.0000E+00  0.0000E+00  0.0000E+00  0.0000E+00  0.0000E+00  0.0000E+00  0.0000E+00  0.0000E+00  0.0000E+00  0.0000E+00  0.0000E+00  0.8255E-01  0.1195E-01  0.1820E-01  0.2551E+02
REACH    5        0    25  0.1468E+01  0.3453E-01  0.3450E-01  0.2932E-04  0.0000E+00  0.3407E+00  0.2348E+00  0.7877E+02  0.3919E-01  0.3909E-01  0.8792E-02  0.8759E-02  0.4790E-01  0.4786E-01  0.1159E-02  0.1541E-02  0.2875E-05  0.4873E-05  0.8065E-02  0.8114E-02  0.1384E-03  0.1141E-03  0.1735E+02  0.1707E+02  0.9020E+01  0.6793E+01  0.0000E+00  0.0000E+00  0.0000E+00  0.0000E+00  0.0000E+00  0.0000E+00  0.0000E+00  0.0000E+00  0.0000E+00  0.0000E+00  0.0000E+00  0.0000E+00  0.0000E+00  0.0000E+00  0.0000E+00  0.0000E+00  0.0000E+00  0.8849E-01  0.1687E-01  0.1605E-01  0.2551E+02
REACH    1        0    26  0.1194E+00  0.1081E-02  0.1079E-02  0.1178E-05  0.0000E+00  0.2356E-08  0.2356E-08  0.2526E-04  0.3859E-06  0.3853E-06  0.1160E-06  0.1158E-06  0.1050E-02  0.1049E-02  0.0000E+00  0.1340E-04  0.0000E+00  0.0000E+00  0.1480E-06  0.4436E-06  0.1119E-11  0.0000E+00  0.0000E+00  0.0000E+00  0.7643E+00  0.7426E+00  0.0000E+00  0.0000E+00  0.0000E+00  0.0000E+00  0.0000E+00  0.0000E+00  0.0000E+00  0.0000E+00  0.0000E+00  0.0000E+00  0.0000E+00  0.0000E+00  0.0000E+00  0.0000E+00  0.0000E+00  0.0000E+00  0.0000E+00  0.1062E-02  0.5594E-06  0.1124E-01  0.2551E+02
REACH    2        0    26  0.1067E+00  0.7021E-03  0.7019E-03  0.2378E-06  0.0000E+00  0.3998E-08  0.3998E-08  0.6593E-04  0.1067E-07  0.0000E+00  0.3201E-07  0.0000E+00  0.7816E-03  0.7813E-03  0.0000E+00  0.2686E-05  0.0000E+00  0.0000E+00  0.5388E-06  0.8072E-06  0.1614E-08  0.0000E+00  0.0000E+00  0.0000E+00  0.4966E+00  0.4829E+00  0.0000E+00  0.0000E+00  0.0000E+00  0.0000E+00  0.0000E+00  0.0000E+00  0.0000E+00  0.0000E+00  0.0000E+00  0.0000E+00  0.0000E+00  0.0000E+00  0.0000E+00  0.0000E+00  0.0000E+00  0.0000E+00  0.0000E+00  0.7840E-03  0.8072E-06  0.0000E+00  0.2551E+02
REACH    3        0    26  0.6245E+00  0.4722E-02  0.4683E-02  0.3946E-04  0.0000E+00  0.5731E-08  0.5731E-08  0.1417E-04  0.6245E-07  0.0000E+00  0.1873E-06  0.0000E+00  0.9746E-02  0.9665E-02  0.0000E+00  0.4844E-03  0.0000E+00  0.0000E+00  0.6253E-07  0.0000E+00  0.1201E-19  0.0000E+00  0.0000E+00  0.0000E+00  0.3340E+01  0.3221E+01  0.0000E+00  0.0000E+00  0.0000E+00  0.0000E+00  0.0000E+00  0.0000E+00  0.0000E+00  0.0000E+00  0.0000E+00  0.0000E+00  0.0000E+00  0.0000E+00  0.0000E+00  0.0000E+00  0.0000E+00  0.0000E+00  0.0000E+00  0.1015E-01  0.0000E+00  0.2389E-01  0.2551E+02
REACH    4        0    26  0.1189E+01  0.8776E-02  0.8733E-02  0.4284E-04  0.0000E+00  0.2360E-07  0.7399E-01  0.9806E+02  0.8037E-06  0.7987E-06  0.3293E-06  0.0000E+00  0.1436E-01  0.1429E-01  0.4978E-03  0.1027E-02  0.0000E+00  0.4020E-05  0.1045E-04  0.3120E-04  0.7123E-07  0.0000E+00  0.0000E+00  0.0000E+00  0.6096E+01  0.6007E+01  0.0000E+00  0.0000E+00  0.0000E+00  0.0000E+00  0.0000E+00  0.0000E+00  0.0000E+00  0.0000E+00  0.0000E+00  0.0000E+00  0.0000E+00  0.0000E+00  0.0000E+00  0.0000E+00  0.0000E+00  0.0000E+00  0.0000E+00  0.1533E-01  0.3120E-04  0.1894E-01  0.2551E+02
REACH    5        0    26  0.1468E+01  0.1038E-01  0.1036E-01  0.2532E-04  0.0000E+00  0.7399E-01  0.4401E-01  0.4917E+02  0.8157E-06  0.0000E+00  0.5115E-07  0.0000E+00  0.1608E-01  0.1604E-01  0.1030E-02  0.1332E-02  0.4020E-05  0.1203E-04  0.1547E-03  0.1856E-03  0.5910E-06  0.2653E-06  0.0000E+00  0.0000E+00  0.7162E+01  0.7125E+01  0.0000E+00  0.0000E+00  0.0000E+00  0.0000E+00  0.0000E+00  0.0000E+00  0.0000E+00  0.0000E+00  0.0000E+00  0.0000E+00  0.0000E+00  0.0000E+00  0.0000E+00  0.0000E+00  0.0000E+00  0.0000E+00  0.0000E+00  0.1738E-01  0.1856E-03  0.1792E-01  0.2551E+02
REACH    1        0    27  0.1194E+00  0.3394E-02  0.3392E-02  0.1451E-05  0.0000E+00  0.2356E-08  0.2356E-08  0.8038E-05  0.2374E-06  0.0000E+00  0.8415E-07  0.0000E+00  0.2377E-02  0.2375E-02  0.0000E+00  0.1508E-04  0.0000E+00  0.0000E+00  0.9399E-07  0.0000E+00  0.2465E-12  0.0000E+00  0.0000E+00  0.0000E+00  0.2402E+01  0.2336E+01  0.0000E+00  0.0000E+00  0.0000E+00  0.0000E+00  0.0000E+00  0.0000E+00  0.0000E+00  0.0000E+00  0.0000E+00  0.0000E+00  0.0000E+00  0.0000E+00  0.0000E+00  0.0000E+00  0.0000E+00  0.0000E+00  0.0000E+00  0.2391E-02  0.0000E+00  0.8105E-02  0.2547E+02
REACH    2        0    27  0.1067E+00  0.3630E-02  0.3629E-02  0.2966E-06  0.0000E+00  0.3998E-08  0.3998E-08  0.1275E-04  0.1067E-07  0.0000E+00  0.3201E-07  0.0000E+00  0.2286E-02  0.2286E-02  0.0000E+00  0.3049E-05  0.0000E+00  0.0000E+00  0.1307E-02  0.1307E-02  0.5724E-05  0.5637E-05  0.0000E+00  0.0000E+00  0.2569E+01  0.2499E+01  0.0000E+00  0.0000E+00  0.0000E+00  0.0000E+00  0.0000E+00  0.0000E+00  0.0000E+00  0.0000E+00  0.0000E+00  0.0000E+00  0.0000E+00  0.0000E+00  0.0000E+00  0.0000E+00  0.0000E+00  0.0000E+00  0.0000E+00  0.2289E-02  0.1307E-02  0.7289E-02  0.2547E+02
REACH    3        0    27  0.6245E+00  0.1878E-01  0.1874E-01  0.4231E-04  0.0000E+00  0.5181E-01  0.5181E-01  0.3200E+02  0.1150E-01  0.1145E-01  0.2629E-02  0.2612E-02  0.3018E-01  0.3011E-01  0.0000E+00  0.5295E-03  0.0000E+00  0.0000E+00  0.3781E-03  0.4376E-03  0.7244E-04  0.3688E-04  0.6026E+01  0.5882E+01  0.1324E+02  0.5786E+01  0.0000E+00  0.0000E+00  0.0000E+00  0.0000E+00  0.0000E+00  0.0000E+00  0.0000E+00  0.0000E+00  0.0000E+00  0.0000E+00  0.0000E+00  0.0000E+00  0.0000E+00  0.0000E+00  0.0000E+00  0.0000E+00  0.0000E+00  0.4208E-01  0.3049E-02  0.1860E-01  0.2547E+02
[...]
REACH    3        0   360  0.6245E+00  0.7997E-01  0.7993E-01  0.3867E-04  0.0000E+00  0.1890E+02  0.1890E+02  0.2737E+04  0.1230E+02  0.1228E+02  0.2749E+01  0.2741E+01  0.1641E+00  0.1640E+00  0.0000E+00  0.1737E-01  0.0000E+00  0.0000E+00  0.6157E-02  0.1248E-01  0.6479E-01  0.5660E-01  0.1770E+04  0.1746E+04  0.3910E+02  0.6390E+00  0.0000E+00  0.0000E+00  0.0000E+00  0.0000E+00  0.0000E+00  0.0000E+00  0.0000E+00  0.0000E+00  0.0000E+00  0.0000E+00  0.0000E+00  0.0000E+00  0.0000E+00  0.0000E+00  0.0000E+00  0.0000E+00  0.0000E+00  0.1246E+02  0.2753E+01  0.2375E-01  0.2394E+02
REACH    4        0   360  0.1189E+01  0.1505E+00  0.1505E+00  0.3872E-04  0.0000E+00  0.3595E+02  0.4014E+01  0.3088E+03  0.2104E+02  0.2101E+02  0.4650E+01  0.4642E+01  0.3193E+00  0.3191E+00  0.1770E-01  0.3430E-01  0.0000E+00  0.3047E-04  0.2374E-01  0.2971E-01  0.8614E-01  0.8007E-01  0.3524E+04  0.3497E+04  0.3016E+02  0.1203E+01  0.0000E+00  0.0000E+00  0.0000E+00  0.0000E+00  0.0000E+00  0.0000E+00  0.0000E+00  0.0000E+00  0.0000E+00  0.0000E+00  0.0000E+00  0.0000E+00  0.0000E+00  0.0000E+00  0.0000E+00  0.0000E+00  0.0000E+00  0.2136E+02  0.4672E+01  0.2455E-01  0.2394E+02
REACH    5        0   360  0.1468E+01  0.1850E+00  0.1850E+00  0.2518E-04  0.0000E+00  0.7800E+01  0.2432E+01  0.1522E+03  0.2491E+02  0.2489E+02  0.5490E+01  0.5481E+01  0.3735E+00  0.3734E+00  0.3438E-01  0.5378E-01  0.3047E-04  0.6221E-04  0.4344E-01  0.5048E-01  0.9320E-01  0.8975E-01  0.3827E+04  0.3798E+04  0.1373E+02  0.1479E+01  0.0000E+00  0.0000E+00  0.0000E+00  0.0000E+00  0.0000E+00  0.0000E+00  0.0000E+00  0.0000E+00  0.0000E+00  0.0000E+00  0.0000E+00  0.0000E+00  0.0000E+00  0.0000E+00  0.0000E+00  0.0000E+00  0.0000E+00  0.2531E+02  0.5532E+01  0.2336E-01  0.2394E+02
REACH    1        0   361  0.1194E+00  0.4947E-02  0.4946E-02  0.8389E-06  0.0000E+00  0.6401E-08  0.6401E-08  0.1498E-04  0.3147E-04  0.3145E-04  0.6624E-05  0.6620E-05  0.1558E-01  0.1558E-01  0.0000E+00  0.1446E-04  0.0000E+00  0.0000E+00  0.6766E-05  0.8213E-05  0.1901E-06  0.1797E-06  0.0000E+00  0.0000E+00  0.3540E+01  0.3446E+01  0.0000E+00  0.0000E+00  0.0000E+00  0.0000E+00  0.0000E+00  0.0000E+00  0.0000E+00  0.0000E+00  0.0000E+00  0.0000E+00  0.0000E+00  0.0000E+00  0.0000E+00  0.0000E+00  0.0000E+00  0.0000E+00  0.0000E+00  0.1562E-01  0.1483E-04  0.3645E-01  0.2488E+02
REACH    2        0   361  0.1067E+00  0.4373E-02  0.4372E-02  0.2050E-06  0.0000E+00  0.3998E-08  0.3998E-08  0.1058E-04  0.1067E-07  0.0000E+00  0.3201E-07  0.0000E+00  0.8361E-02  0.8361E-02  0.0000E+00  0.3275E-05  0.0000E+00  0.0000E+00  0.3166E-03  0.3169E-03  0.2658E-05  0.2620E-05  0.0000E+00  0.0000E+00  0.3129E+01  0.3047E+01  0.0000E+00  0.0000E+00  0.0000E+00  0.0000E+00  0.0000E+00  0.0000E+00  0.0000E+00  0.0000E+00  0.0000E+00  0.0000E+00  0.0000E+00  0.0000E+00  0.0000E+00  0.0000E+00  0.0000E+00  0.0000E+00  0.0000E+00  0.8364E-02  0.3169E-03  0.2213E-01  0.2488E+02
REACH    3        0   361  0.6245E+00  0.2691E-01  0.2688E-01  0.2601E-04  0.0000E+00  0.5731E-08  0.5731E-08  0.2468E-05  0.2034E-03  0.2027E-03  0.4315E-04  0.4291E-04  0.5524E-01  0.5519E-01  0.0000E+00  0.5001E-03  0.0000E+00  0.0000E+00  0.4831E-05  0.1448E-04  0.1664E-07  0.0000E+00  0.1016E-07  0.0000E+00  0.1925E+02  0.1873E+02  0.0000E+00  0.0000E+00  0.0000E+00  0.0000E+00  0.0000E+00  0.0000E+00  0.0000E+00  0.0000E+00  0.0000E+00  0.0000E+00  0.0000E+00  0.0000E+00  0.0000E+00  0.0000E+00  0.0000E+00  0.0000E+00  0.0000E+00  0.5589E-01  0.5739E-04  0.2376E-01  0.2488E+02
REACH    4        0   361  0.1189E+01  0.5018E-01  0.5015E-01  0.2705E-04  0.0000E+00  0.3169E-07  0.7751E+00  0.1789E+03  0.2660E-03  0.2655E-03  0.5746E-04  0.5730E-04  0.1087E+00  0.1086E+00  0.5145E-03  0.1050E-02  0.0000E+00  0.0000E+00  0.1092E-02  0.1146E-02  0.9801E-05  0.7806E-05  0.1036E-07  0.0000E+00  0.3531E+02  0.3494E+02  0.0000E+00  0.0000E+00  0.0000E+00  0.0000E+00  0.0000E+00  0.0000E+00  0.0000E+00  0.0000E+00  0.0000E+00  0.0000E+00  0.0000E+00  0.0000E+00  0.0000E+00  0.0000E+00  0.0000E+00  0.0000E+00  0.0000E+00  0.1099E+00  0.1203E-02  0.2507E-01  0.2488E+02
REACH    5        0   361  0.1468E+01  0.6077E-01  0.6075E-01  0.1686E-04  0.0000E+00  0.7751E+00  0.4680E+00  0.8915E+02  0.2655E-03  0.2652E-03  0.5735E-04  0.5723E-04  0.1276E+00  0.1276E+00  0.1053E-02  0.1371E-02  0.0000E+00  0.0000E+00  0.3121E-02  0.3153E-02  0.2296E-04  0.2057E-04  0.0000E+00  0.0000E+00  0.4246E+02  0.4233E+02  0.0000E+00  0.0000E+00  0.0000E+00  0.0000E+00  0.0000E+00  0.0000E+00  0.0000E+00  0.0000E+00  0.0000E+00  0.0000E+00  0.0000E+00  0.0000E+00  0.0000E+00  0.0000E+00  0.0000E+00  0.0000E+00  0.0000E+00  0.1292E+00  0.3210E-02  0.2430E-01  0.2488E+02
REACH    1        0   362  0.1194E+00  0.1152E-01  0.1152E-01  0.1336E-05  0.0000E+00  0.2483E+00  0.2483E+00  0.2495E+03  0.4015E+00  0.4014E+00  0.8706E-01  0.8702E-01  0.1177E+00  0.1177E+00  0.0000E+00  0.9197E-04  0.0000E+00  0.0000E+00  0.2508E-03  0.2795E-03  0.9687E-04  0.9424E-04  0.6789E+01  0.6776E+01  0.7494E+01  0.1812E+01  0.0000E+00  0.0000E+00  0.0000E+00  0.0000E+00  0.0000E+00  0.0000E+00  0.0000E+00  0.0000E+00  0.0000E+00  0.0000E+00  0.0000E+00  0.0000E+00  0.0000E+00  0.0000E+00  0.0000E+00  0.0000E+00  0.0000E+00  0.5191E+00  0.8730E-01  0.1182E+00  0.2566E+02
REACH    2        0   362  0.1067E+00  0.1072E-01  0.1072E-01  0.3203E-06  0.0000E+00  0.2726E+00  0.2726E+00  0.2944E+03  0.2860E+00  0.2860E+00  0.6219E-01  0.6218E-01  0.7592E-01  0.7592E-01  0.0000E+00  0.2108E-04  0.0000E+00  0.0000E+00  0.2277E-02  0.2284E-02  0.6593E-04  0.6549E-04  0.6429E+01  0.6425E+01  0.7083E+01  0.1645E+01  0.0000E+00  0.0000E+00  0.0000E+00  0.0000E+00  0.0000E+00  0.0000E+00  0.0000E+00  0.0000E+00  0.0000E+00  0.0000E+00  0.0000E+00  0.0000E+00  0.0000E+00  0.0000E+00  0.0000E+00  0.0000E+00  0.0000E+00  0.3620E+00  0.6446E-01  0.8198E-01  0.2566E+02
REACH    3        0   362  0.6245E+00  0.6159E-01  0.6155E-01  0.3711E-04  0.0000E+00  0.3518E+01  0.3518E+01  0.6615E+03  0.2483E+01  0.2477E+01  0.5578E+00  0.5559E+00  0.5032E+00  0.5029E+00  0.0000E+00  0.4253E-02  0.0000E+00  0.0000E+00  0.1544E-02  0.2986E-02  0.2018E-02  0.1686E-02  0.1524E+03  0.1502E+03  0.3904E+02  0.5691E+00  0.0000E+00  0.0000E+00  0.0000E+00  0.0000E+00  0.0000E+00  0.0000E+00  0.0000E+00  0.0000E+00  0.0000E+00  0.0000E+00  0.0000E+00  0.0000E+00  0.0000E+00  0.0000E+00  0.0000E+00  0.0000E+00  0.0000E+00  0.2984E+01  0.5589E+00  0.9457E-01  0.2566E+02
REACH    4        0   362  0.1189E+01  0.1177E+00  0.1176E+00  0.3925E-04  0.0000E+00  0.7373E+01  0.2454E+01  0.2414E+03  0.3943E+01  0.3937E+01  0.8756E+00  0.8736E+00  0.9459E+00  0.9456E+00  0.4345E-02  0.9105E-02  0.0000E+00  0.1230E-04  0.1076E-01  0.1236E-01  0.2066E-02  0.1872E-02  0.4183E+03  0.4139E+03  0.3128E+02  0.9577E+00  0.0000E+00  0.0000E+00  0.0000E+00  0.0000E+00  0.0000E+00  0.0000E+00  0.0000E+00  0.0000E+00  0.0000E+00  0.0000E+00  0.0000E+00  0.0000E+00  0.0000E+00  0.0000E+00  0.0000E+00  0.0000E+00  0.0000E+00  0.4892E+01  0.8860E+00  0.9303E-01  0.2566E+02
REACH    5        0   362  0.1468E+01  0.1462E+00  0.1461E+00  0.2479E-04  0.0000E+00  0.3045E+01  0.1714E+01  0.1358E+03  0.4586E+01  0.4580E+01  0.1015E+01  0.1013E+01  0.1115E+01  0.1115E+01  0.9126E-02  0.1374E-01  0.1230E-04  0.1345E-04  0.2409E-01  0.2570E-01  0.2059E-02  0.1960E-02  0.4282E+03  0.4242E+03  0.1455E+02  0.1233E+01  0.0000E+00  0.0000E+00  0.0000E+00  0.0000E+00  0.0000E+00  0.0000E+00  0.0000E+00  0.0000E+00  0.0000E+00  0.0000E+00  0.0000E+00  0.0000E+00  0.0000E+00  0.0000E+00  0.0000E+00  0.0000E+00  0.0000E+00  0.5709E+01  0.1038E+01  0.8830E-01  0.2566E+02
REACH    1        0   363  0.1194E+00  0.8014E-02  0.8013E-02  0.1454E-05  0.0000E+00  0.2356E-08  0.2356E-08  0.3403E-05  0.1144E-04  0.1144E-04  0.2430E-05  0.2429E-05  0.8758E-01  0.8756E-01  0.0000E+00  0.1699E-04  0.0000E+00  0.0000E+00  0.2835E-05  0.4534E-05  0.1960E-07  0.0000E+00  0.0000E+00  0.0000E+00  0.5657E+01  0.5500E+01  0.0000E+00  0.0000E+00  0.0000E+00  0.0000E+00  0.0000E+00  0.0000E+00  0.0000E+00  0.0000E+00  0.0000E+00  0.0000E+00  0.0000E+00  0.0000E+00  0.0000E+00  0.0000E+00  0.0000E+00  0.0000E+00  0.0000E+00  0.8759E-01  0.6963E-05  0.1265E+00  0.2562E+02
REACH    2        0   363  0.1067E+00  0.7090E-02  0.7089E-02  0.2994E-06  0.0000E+00  0.3998E-08  0.3998E-08  0.6527E-05  0.1067E-07  0.0000E+00  0.3201E-07  0.0000E+00  0.5006E-01  0.5005E-01  0.0000E+00  0.3455E-05  0.0000E+00  0.0000E+00  0.9625E-03  0.9628E-03  0.3118E-05  0.3090E-05  0.0000E+00  0.0000E+00  0.5004E+01  0.4866E+01  0.0000E+00  0.0000E+00  0.0000E+00  0.0000E+00  0.0000E+00  0.0000E+00  0.0000E+00  0.0000E+00  0.0000E+00  0.0000E+00  0.0000E+00  0.0000E+00  0.0000E+00  0.0000E+00  0.0000E+00  0.0000E+00  0.0000E+00  0.5006E-01  0.9628E-03  0.8172E-01  0.2562E+02
REACH    3        0   363  0.6245E+00  0.4223E-01  0.4219E-01  0.3811E-04  0.0000E+00  0.5731E-08  0.5731E-08  0.1572E-05  0.4197E-01  0.4185E-01  0.9655E-02  0.9617E-02  0.3432E+00  0.3429E+00  0.0000E+00  0.5933E-03  0.0000E+00  0.0000E+00  0.6263E-04  0.1407E-03  0.1126E-05  0.8675E-06  0.6871E-07  0.0000E+00  0.2981E+02  0.2896E+02  0.0000E+00  0.0000E+00  0.0000E+00  0.0000E+00  0.0000E+00  0.0000E+00  0.0000E+00  0.0000E+00  0.0000E+00  0.0000E+00  0.0000E+00  0.0000E+00  0.0000E+00  0.0000E+00  0.0000E+00  0.0000E+00  0.0000E+00  0.3853E+00  0.9758E-02  0.9406E-01  0.2562E+02
REACH    4        0   363  0.1189E+01  0.7984E-01  0.7980E-01  0.4110E-04  0.0000E+00  0.2360E-07  0.1441E+01  0.2090E+03  0.4232E-01  0.4224E-01  0.9734E-02  0.9707E-02  0.6459E+00  0.6455E+00  0.6103E-03  0.1238E-02  0.0000E+00  0.0000E+00  0.3315E-02  0.3391E-02  0.1427E-04  0.1235E-04  0.7000E-07  0.0000E+00  0.5538E+02  0.5478E+02  0.0000E+00  0.0000E+00  0.0000E+00  0.0000E+00  0.0000E+00  0.0000E+00  0.0000E+00  0.0000E+00  0.0000E+00  0.0000E+00  0.0000E+00  0.0000E+00  0.0000E+00  0.0000E+00  0.0000E+00  0.0000E+00  0.0000E+00  0.6890E+00  0.1310E-01  0.9363E-01  0.2562E+02
REACH    5        0   363  0.1468E+01  0.9785E-01  0.9783E-01  0.2538E-04  0.0000E+00  0.1441E+01  0.1022E+01  0.1209E+03  0.4267E-01  0.4260E-01  0.9799E-02  0.9778E-02  0.7575E+00  0.7573E+00  0.1242E-02  0.1628E-02  0.0000E+00  0.0000E+00  0.8790E-02  0.8839E-02  0.2951E-04  0.2751E-04  0.1322E-07  0.0000E+00  0.6738E+02  0.6715E+02  0.0000E+00  0.0000E+00  0.0000E+00  0.0000E+00  0.0000E+00  0.0000E+00  0.0000E+00  0.0000E+00  0.0000E+00  0.0000E+00  0.0000E+00  0.0000E+00  0.0000E+00  0.0000E+00  0.0000E+00  0.0000E+00  0.0000E+00  0.8015E+00  0.1862E-01  0.8959E-01  0.2562E+02
REACH    1        0   364  0.1194E+00  0.2765E-02  0.2763E-02  0.1657E-05  0.0000E+00  0.2356E-08  0.2356E-08  0.9868E-05  0.6903E-05  0.6895E-05  0.1479E-05  0.1477E-05  0.3011E-01  0.3010E-01  0.0000E+00  0.1525E-04  0.0000E+00  0.0000E+00  0.1683E-05  0.3207E-05  0.4964E-08  0.0000E+00  0.0000E+00  0.0000E+00  0.1952E+01  0.1897E+01  0.0000E+00  0.0000E+00  0.0000E+00  0.0000E+00  0.0000E+00  0.0000E+00  0.0000E+00  0.0000E+00  0.0000E+00  0.0000E+00  0.0000E+00  0.0000E+00  0.0000E+00  0.0000E+00  0.0000E+00  0.0000E+00  0.0000E+00  0.3012E-01  0.4684E-05  0.1261E+00  0.2562E+02
REACH    2        0   364  0.1067E+00  0.2205E-02  0.2205E-02  0.3384E-06  0.0000E+00  0.3998E-08  0.3998E-08  0.2099E-04  0.1067E-07  0.0000E+00  0.3201E-07  0.0000E+00  0.1717E-01  0.1717E-01  0.0000E+00  0.3081E-05  0.0000E+00  0.0000E+00  0.5624E-06  0.8704E-06  0.1359E-08  0.0000E+00  0.0000E+00  0.0000E+00  0.1556E+01  0.1513E+01  0.0000E+00  0.0000E+00  0.0000E+00  0.0000E+00  0.0000E+00  0.0000E+00  0.0000E+00  0.0000E+00  0.0000E+00  0.0000E+00  0.0000E+00  0.0000E+00  0.0000E+00  0.0000E+00  0.0000E+00  0.0000E+00  0.0000E+00  0.1717E-01  0.8704E-06  0.9012E-01  0.2562E+02
REACH    3        0   364  0.6245E+00  0.1447E-01  0.1442E-01  0.4836E-04  0.0000E+00  0.5731E-08  0.5731E-08  0.4600E-05  0.1125E-06  0.0000E+00  0.1976E-06  0.0000E+00  0.1179E+00  0.1175E+00  0.0000E+00  0.5083E-03  0.0000E+00  0.0000E+00  0.2336E-06  0.0000E+00  0.9871E-13  0.0000E+00  0.0000E+00  0.0000E+00  0.1021E+02  0.9899E+01  0.0000E+00  0.0000E+00  0.0000E+00  0.0000E+00  0.0000E+00  0.0000E+00  0.0000E+00  0.0000E+00  0.0000E+00  0.0000E+00  0.0000E+00  0.0000E+00  0.0000E+00  0.0000E+00  0.0000E+00  0.0000E+00  0.0000E+00  0.1180E+00  0.0000E+00  0.9427E-01  0.2562E+02
REACH    4        0   364  0.1189E+01  0.2654E-01  0.2649E-01  0.5123E-04  0.0000E+00  0.2360E-07  0.3319E+00  0.1450E+03  0.1383E-04  0.1378E-04  0.3054E-05  0.3038E-05  0.2212E+00  0.2208E+00  0.5236E-03  0.1074E-02  0.0000E+00  0.2893E-05  0.1882E-04  0.5634E-04  0.4779E-07  0.0000E+00  0.0000E+00  0.0000E+00  0.1840E+02  0.1818E+02  0.0000E+00  0.0000E+00  0.0000E+00  0.0000E+00  0.0000E+00  0.0000E+00  0.0000E+00  0.0000E+00  0.0000E+00  0.0000E+00  0.0000E+00  0.0000E+00  0.0000E+00  0.0000E+00  0.0000E+00  0.0000E+00  0.0000E+00  0.2219E+00  0.5938E-04  0.9646E-01  0.2562E+02
REACH    5        0   364  0.1468E+01  0.3151E-01  0.3148E-01  0.3111E-04  0.0000E+00  0.3319E+00  0.1954E+00  0.7187E+02  0.1379E-04  0.1376E-04  0.3089E-05  0.3077E-05  0.2591E+00  0.2589E+00  0.1077E-02  0.1398E-02  0.2893E-05  0.8670E-05  0.2117E-03  0.2443E-03  0.4667E-06  0.3763E-06  0.0000E+00  0.0000E+00  0.2168E+02  0.2160E+02  0.0000E+00  0.0000E+00  0.0000E+00  0.0000E+00  0.0000E+00  0.0000E+00  0.0000E+00  0.0000E+00  0.0000E+00  0.0000E+00  0.0000E+00  0.0000E+00  0.0000E+00  0.0000E+00  0.0000E+00  0.0000E+00  0.0000E+00  0.2603E+00  0.2473E-03  0.9519E-01  0.2562E+02
REACH    1        0   365  0.1194E+00  0.3406E-02  0.3405E-02  0.1012E-05  0.0000E+00  0.2356E-08  0.2356E-08  0.8008E-05  0.4166E-05  0.4163E-05  0.9060E-06  0.9051E-06  0.1157E-01  0.1157E-01  0.0000E+00  0.1430E-04  0.0000E+00  0.0000E+00  0.1018E-05  0.2448E-05  0.1186E-08  0.0000E+00  0.0000E+00  0.0000E+00  0.2444E+01  0.2380E+01  0.0000E+00  0.0000E+00  0.0000E+00  0.0000E+00  0.0000E+00  0.0000E+00  0.0000E+00  0.0000E+00  0.0000E+00  0.0000E+00  0.0000E+00  0.0000E+00  0.0000E+00  0.0000E+00  0.0000E+00  0.0000E+00  0.0000E+00  0.1158E-01  0.3353E-05  0.3931E-01  0.2472E+02
REACH    2        0   365  0.1067E+00  0.3365E-02  0.3365E-02  0.2069E-06  0.0000E+00  0.3998E-08  0.3998E-08  0.1375E-04  0.1067E-07  0.0000E+00  0.3201E-07  0.0000E+00  0.7263E-02  0.7263E-02  0.0000E+00  0.2890E-05  0.0000E+00  0.0000E+00  0.5617E-03  0.5620E-03  0.4024E-05  0.3959E-05  0.0000E+00  0.0000E+00  0.2414E+01  0.2351E+01  0.0000E+00  0.0000E+00  0.0000E+00  0.0000E+00  0.0000E+00  0.0000E+00  0.0000E+00  0.0000E+00  0.0000E+00  0.0000E+00  0.0000E+00  0.0000E+00  0.0000E+00  0.0000E+00  0.0000E+00  0.0000E+00  0.0000E+00  0.7266E-02  0.5620E-03  0.2498E-01  0.2472E+02
REACH    3        0   365  0.6245E+00  0.1976E-01  0.1973E-01  0.2947E-04  0.0000E+00  0.7327E-01  0.7327E-01  0.4299E+02  0.4905E-02  0.4885E-02  0.1130E-02  0.1124E-02  0.5008E-01  0.5000E-01  0.0000E+00  0.4878E-03  0.0000E+00  0.0000E+00  0.6731E-05  0.2016E-04  0.5845E-06  0.3167E-06  0.4412E+01  0.4317E+01  0.1415E+02  0.8028E+01  0.0000E+00  0.0000E+00  0.0000E+00  0.0000E+00  0.0000E+00  0.0000E+00  0.0000E+00  0.0000E+00  0.0000E+00  0.0000E+00  0.0000E+00  0.0000E+00  0.0000E+00  0.0000E+00  0.0000E+00  0.0000E+00  0.0000E+00  0.5538E-01  0.1144E-02  0.2934E-01  0.2472E+02
REACH    4        0   365  0.1189E+01  0.3726E-01  0.3723E-01  0.3262E-04  0.0000E+00  0.3455E+00  0.4272E+00  0.1328E+03  0.4896E-02  0.4881E-02  0.1133E-02  0.1129E-02  0.9416E-01  0.9407E-01  0.5021E-03  0.1039E-02  0.0000E+00  0.0000E+00  0.1891E-02  0.1946E-02  0.1659E-04  0.1206E-04  0.2164E+02  0.2124E+02  0.2044E+02  0.6463E+01  0.0000E+00  0.0000E+00  0.0000E+00  0.0000E+00  0.0000E+00  0.0000E+00  0.0000E+00  0.0000E+00  0.0000E+00  0.0000E+00  0.0000E+00  0.0000E+00  0.0000E+00  0.0000E+00  0.0000E+00  0.0000E+00  0.0000E+00  0.9999E-01  0.3075E-02  0.2925E-01  0.2472E+02
REACH    5        0   365  0.1468E+01  0.4593E-01  0.4591E-01  0.1968E-04  0.0000E+00  0.4272E+00  0.3265E+00  0.8232E+02  0.4881E-02  0.4870E-02  0.1129E-02  0.1125E-02  0.1106E+00  0.1106E+00  0.1042E-02  0.1358E-02  0.0000E+00  0.4013E-05  0.4948E-02  0.4980E-02  0.3341E-04  0.2896E-04  0.2124E+02  0.2093E+02  0.1265E+02  0.1054E+02  0.0000E+00  0.0000E+00  0.0000E+00  0.0000E+00  0.0000E+00  0.0000E+00  0.0000E+00  0.0000E+00  0.0000E+00  0.0000E+00  0.0000E+00  0.0000E+00  0.0000E+00  0.0000E+00  0.0000E+00  0.0000E+00  0.0000E+00  0.1168E+00  0.6105E-02  0.2788E-01  0.2472E+02
REACH    1        0   366  0.1194E+00  0.3771E-01  0.3771E-01  0.8179E-06  0.0000E+00  0.4160E+01  0.4160E+01  0.1277E+04  0.6957E+01  0.6956E+01  0.1509E+01  0.1508E+01  0.3396E+00  0.3396E+00  0.0000E+00  0.7562E-03  0.0000E+00  0.0000E+00  0.4694E-02  0.4962E-02  0.5788E-01  0.5732E-01  0.6916E+03  0.6909E+03  0.1492E+02  0.3016E+00  0.0000E+00  0.0000E+00  0.0000E+00  0.0000E+00  0.0000E+00  0.0000E+00  0.0000E+00  0.0000E+00  0.0000E+00  0.0000E+00  0.0000E+00  0.0000E+00  0.0000E+00  0.0000E+00  0.0000E+00  0.0000E+00  0.0000E+00  0.7297E+01  0.1513E+01  0.1042E+00  0.2401E+02
REACH    2        0   366  0.1067E+00  0.3473E-01  0.3473E-01  0.9280E-06  0.0000E+00  0.4717E+01  0.4717E+01  0.1572E+04  0.5111E+01  0.5110E+01  0.1111E+01  0.1111E+01  0.2292E+00  0.2292E+00  0.0000E+00  0.3248E-03  0.0000E+00  0.0000E+00  0.9961E-02  0.1008E-01  0.4113E-01  0.4094E-01  0.7031E+03  0.7026E+03  0.1553E+02  0.2778E+00  0.0000E+00  0.0000E+00  0.0000E+00  0.0000E+00  0.0000E+00  0.0000E+00  0.0000E+00  0.0000E+00  0.0000E+00  0.0000E+00  0.0000E+00  0.0000E+00  0.0000E+00  0.0000E+00  0.0000E+00  0.0000E+00  0.0000E+00  0.5340E+01  0.1121E+01  0.7639E-01  0.2401E+02
REACH    3        0   366  0.6245E+00  0.2008E+00  0.2008E+00  0.2116E-04  0.0000E+00  0.4711E+02  0.4711E+02  0.2716E+04  0.3307E+02  0.3303E+02  0.7369E+01  0.7356E+01  0.1453E+01  0.1453E+01  0.0000E+00  0.3226E-01  0.0000E+00  0.0000E+00  0.2076E-01  0.3258E-01  0.3273E+00  0.3087E+00  0.6824E+04  0.6760E+04  0.7593E+02  0.1606E+01  0.0000E+00  0.0000E+00  0.0000E+00  0.0000E+00  0.0000E+00  0.0000E+00  0.0000E+00  0.0000E+00  0.0000E+00  0.0000E+00  0.0000E+00  0.0000E+00  0.0000E+00  0.0000E+00  0.0000E+00  0.0000E+00  0.0000E+00  0.3451E+02  0.7388E+01  0.8375E-01  0.2401E+02
REACH    4        0   366  0.1189E+01  0.3834E+00  0.3833E+00  0.2108E-04  0.0000E+00  0.8487E+02  0.1337E+02  0.4037E+03  0.5888E+02  0.5884E+02  0.1299E+02  0.1298E+02  0.2771E+01  0.2771E+01  0.3301E-01  0.6815E-01  0.0000E+00  0.3988E-04  0.7100E-01  0.8375E-01  0.5188E+00  0.5027E+00  0.1241E+05  0.1233E+05  0.6382E+02  0.3066E+01  0.0000E+00  0.0000E+00  0.0000E+00  0.0000E+00  0.0000E+00  0.0000E+00  0.0000E+00  0.0000E+00  0.0000E+00  0.0000E+00  0.0000E+00  0.0000E+00  0.0000E+00  0.0000E+00  0.0000E+00  0.0000E+00  0.0000E+00  0.6168E+02  0.1306E+02  0.8366E-01  0.2401E+02
REACH    5        0   366  0.1468E+01  0.4759E+00  0.4758E+00  0.7058E-04  0.0000E+00  0.2357E+02  0.4368E+01  0.1063E+03  0.7032E+02  0.7022E+02  0.1547E+02  0.1544E+02  0.3282E+01  0.3281E+01  0.6847E-01  0.1466E+00  0.3988E-04  0.8731E-04  0.1281E+00  0.1565E+00  0.5956E+00  0.5769E+00  0.1387E+05  0.1372E+05  0.3337E+02  0.3805E+01  0.0000E+00  0.0000E+00  0.0000E+00  0.0000E+00  0.0000E+00  0.0000E+00  0.0000E+00  0.0000E+00  0.0000E+00  0.0000E+00  0.0000E+00  0.0000E+00  0.0000E+00  0.0000E+00  0.0000E+00  0.0000E+00  0.0000E+00  0.7365E+02  0.1560E+02  0.7981E-01  0.2401E+02
