1
    SWAT Dec 23 2016    VER 2016/Rev 664                                                                 0/ 0/   0      0: 0: 0

    General Input/Output section (file.cio):                                        
    2/11/2020 16:57:02 QSWAT Workflow v1.5.2                                        
                                                                                    
         Number of years in run:   12
         Area of watershed:        2.518 km2
1
    SWAT Dec 23 2016    VER 2016/Rev 664                                            

    General Input/Output section (file.cio):                                        
    2/11/2020 16:57:02 QSWAT Workflow v1.5.2                                        
                                                                                    
Annual Summary for Watershed in year    1 of simulation

UNIT                                    PERCO    TILE                           WATER     SED     NO3     NO3     NO3     NO3        N       P       P
TIME     PREC    SURQ    LATQ     GWQ    LATE       Q     SW       ET     PET   YIELD   YIELD    SURQ    LATQ    PERC    CROP  ORGANIC SOLUBLE ORGANIC TILENO3
         (mm)    (mm)    (mm)    (mm)    (mm)    (mm)    (mm)    (mm)    (mm)    (mm)   (t/ha)  ------------------(kg nutrient/ha)-------------------- (kg/ha)
1
    SWAT Dec 23 2016    VER 2016/Rev 664                                            

    General Input/Output section (file.cio):                                        
    2/11/2020 16:57:02 QSWAT Workflow v1.5.2                                        
                                                                                    
Annual Summary for Watershed in year    2 of simulation

UNIT                                    PERCO    TILE                           WATER     SED     NO3     NO3     NO3     NO3        N       P       P
TIME     PREC    SURQ    LATQ     GWQ    LATE       Q     SW       ET     PET   YIELD   YIELD    SURQ    LATQ    PERC    CROP  ORGANIC SOLUBLE ORGANIC TILENO3
         (mm)    (mm)    (mm)    (mm)    (mm)    (mm)    (mm)    (mm)    (mm)    (mm)   (t/ha)  ------------------(kg nutrient/ha)-------------------- (kg/ha)
1
    SWAT Dec 23 2016    VER 2016/Rev 664                                            

    General Input/Output section (file.cio):                                        
    2/11/2020 16:57:02 QSWAT Workflow v1.5.2                                        
                                                                                    
Annual Summary for Watershed in year    3 of simulation

UNIT                                    PERCO    TILE                           WATER     SED     NO3     NO3     NO3     NO3        N       P       P
TIME     PREC    SURQ    LATQ     GWQ    LATE       Q     SW       ET     PET   YIELD   YIELD    SURQ    LATQ    PERC    CROP  ORGANIC SOLUBLE ORGANIC TILENO3
         (mm)    (mm)    (mm)    (mm)    (mm)    (mm)    (mm)    (mm)    (mm)    (mm)   (t/ha)  ------------------(kg nutrient/ha)-------------------- (kg/ha)
1
    SWAT Dec 23 2016    VER 2016/Rev 664                                            

    General Input/Output section (file.cio):                                        
    2/11/2020 16:57:02 QSWAT Workflow v1.5.2                                        
                                                                                    
Annual Summary for Watershed in year    4 of simulation

UNIT                                    PERCO    TILE                           WATER     SED     NO3     NO3     NO3     NO3        N       P       P
TIME     PREC    SURQ    LATQ     GWQ    LATE       Q     SW       ET     PET   YIELD   YIELD    SURQ    LATQ    PERC    CROP  ORGANIC SOLUBLE ORGANIC TILENO3
         (mm)    (mm)    (mm)    (mm)    (mm)    (mm)    (mm)    (mm)    (mm)    (mm)   (t/ha)  ------------------(kg nutrient/ha)-------------------- (kg/ha)
1
    SWAT Dec 23 2016    VER 2016/Rev 664                                            

    General Input/Output section (file.cio):                                        
    2/11/2020 16:57:02 QSWAT Workflow v1.5.2                                        
                                                                                    
Annual Summary for Watershed in year    5 of simulation

UNIT                                    PERCO    TILE                           WATER     SED     NO3     NO3     NO3     NO3        N       P       P
TIME     PREC    SURQ    LATQ     GWQ    LATE       Q     SW       ET     PET   YIELD   YIELD    SURQ    LATQ    PERC    CROP  ORGANIC SOLUBLE ORGANIC TILENO3
         (mm)    (mm)    (mm)    (mm)    (mm)    (mm)    (mm)    (mm)    (mm)    (mm)   (t/ha)  ------------------(kg nutrient/ha)-------------------- (kg/ha)
1
    SWAT Dec 23 2016    VER 2016/Rev 664                                            

    General Input/Output section (file.cio):                                        
    2/11/2020 16:57:02 QSWAT Workflow v1.5.2                                        
                                                                                    
Annual Summary for Watershed in year    6 of simulation

UNIT                                    PERCO    TILE                           WATER     SED     NO3     NO3     NO3     NO3        N       P       P
TIME     PREC    SURQ    LATQ     GWQ    LATE       Q     SW       ET     PET   YIELD   YIELD    SURQ    LATQ    PERC    CROP  ORGANIC SOLUBLE ORGANIC TILENO3
         (mm)    (mm)    (mm)    (mm)    (mm)    (mm)    (mm)    (mm)    (mm)    (mm)   (t/ha)  ------------------(kg nutrient/ha)-------------------- (kg/ha)
1
    SWAT Dec 23 2016    VER 2016/Rev 664                                            

    General Input/Output section (file.cio):                                        
    2/11/2020 16:57:02 QSWAT Workflow v1.5.2                                        
                                                                                    
Annual Summary for Watershed in year    7 of simulation

UNIT                                    PERCO    TILE                           WATER     SED     NO3     NO3     NO3     NO3        N       P       P
TIME     PREC    SURQ    LATQ     GWQ    LATE       Q     SW       ET     PET   YIELD   YIELD    SURQ    LATQ    PERC    CROP  ORGANIC SOLUBLE ORGANIC TILENO3
         (mm)    (mm)    (mm)    (mm)    (mm)    (mm)    (mm)    (mm)    (mm)    (mm)   (t/ha)  ------------------(kg nutrient/ha)-------------------- (kg/ha)
1
    SWAT Dec 23 2016    VER 2016/Rev 664                                            

    General Input/Output section (file.cio):                                        
    2/11/2020 16:57:02 QSWAT Workflow v1.5.2                                        
                                                                                    
Annual Summary for Watershed in year    8 of simulation

UNIT                                    PERCO    TILE                           WATER     SED     NO3     NO3     NO3     NO3        N       P       P
TIME     PREC    SURQ    LATQ     GWQ    LATE       Q     SW       ET     PET   YIELD   YIELD    SURQ    LATQ    PERC    CROP  ORGANIC SOLUBLE ORGANIC TILENO3
         (mm)    (mm)    (mm)    (mm)    (mm)    (mm)    (mm)    (mm)    (mm)    (mm)   (t/ha)  ------------------(kg nutrient/ha)-------------------- (kg/ha)
1
    SWAT Dec 23 2016    VER 2016/Rev 664                                            

    General Input/Output section (file.cio):                                        
    2/11/2020 16:57:02 QSWAT Workflow v1.5.2                                        
                                                                                    
Annual Summary for Watershed in year    9 of simulation

UNIT                                    PERCO    TILE                           WATER     SED     NO3     NO3     NO3     NO3        N       P       P
TIME     PREC    SURQ    LATQ     GWQ    LATE       Q     SW       ET     PET   YIELD   YIELD    SURQ    LATQ    PERC    CROP  ORGANIC SOLUBLE ORGANIC TILENO3
         (mm)    (mm)    (mm)    (mm)    (mm)    (mm)    (mm)    (mm)    (mm)    (mm)   (t/ha)  ------------------(kg nutrient/ha)-------------------- (kg/ha)
    1  576.60  158.98  270.65   16.46   41.27    0.00  108.24   89.00  117.37  446.86    9.95    0.01    0.45    0.68    0.00    23.71    0.01    2.90    0.00
    2  144.70   41.17   79.68   19.57   11.73    0.00   60.05   68.26  106.83  141.29    4.93    0.70    0.18    0.20    6.69     6.38    0.00    0.78    0.00
    3   93.80    0.44   32.20   14.72    0.00    0.00   36.10   85.10  115.41   48.28    0.02    0.01    0.13    0.00    7.79     0.02    0.00    0.00    0.00
    4  238.90   35.75   92.72    3.62    1.57    0.00   67.49   65.45  112.39  132.81    0.31    0.00    0.04    0.00    3.27     0.34    0.00    0.04    0.00
    5  134.70    2.81   64.66    2.06    1.99    0.00   65.05   79.10  133.60   70.19    0.03    0.00    0.05    0.01    0.39     0.03    0.00    0.00    0.00
    6  299.10  105.04  109.39    3.34    8.77    0.00   80.51   60.51   88.51  218.27    0.68    0.00    0.17    0.04    0.01     0.80    0.01    0.10    0.00
    7  248.80   19.41  130.52    5.92   12.93    0.00   91.46   75.16  102.98  156.32    0.16    0.02    0.23    0.08    0.33     0.29    0.00    0.05    0.00
    8  467.80  168.24  192.51   10.60   24.61    0.00   99.69   74.05  112.59  371.87    1.59    0.03    0.28    0.20    0.10     2.91    0.02    0.40    0.00
    9  166.70   19.79   66.28   12.99    5.09    0.00   90.21   85.27  150.35   99.65    0.42    0.01    0.07    0.05    0.06     0.55    0.00    0.07    0.00
   10  234.50   54.93   81.61    9.03    5.52    0.00   99.51   78.19  163.54  146.15    1.59    0.02    0.13    0.06    0.00     2.15    0.00    0.27    0.00
   11  180.90   29.18   70.24    5.69    5.18    0.00   98.50   77.87  149.94  105.60    1.40    0.01    0.12    0.06    0.00     1.66    0.00    0.21    0.00
   12  309.80   53.74  137.20    7.08   14.35    0.00  102.58   99.17  145.83  198.49    4.54    0.01    0.27    0.22    0.00     4.59    0.00    0.57    0.00

 2013 3096.30  689.47 1327.66  111.09  133.00    0.00  102.58  937.13 1499.33 2135.79   25.63    0.81    2.11    1.60   18.63    43.43    0.05    5.40    0.00
1
    SWAT Dec 23 2016    VER 2016/Rev 664                                            

    General Input/Output section (file.cio):                                        
    2/11/2020 16:57:02 QSWAT Workflow v1.5.2                                        
                                                                                    
Annual Summary for Watershed in year   10 of simulation

UNIT                                    PERCO    TILE                           WATER     SED     NO3     NO3     NO3     NO3        N       P       P
TIME     PREC    SURQ    LATQ     GWQ    LATE       Q     SW       ET     PET   YIELD   YIELD    SURQ    LATQ    PERC    CROP  ORGANIC SOLUBLE ORGANIC TILENO3
         (mm)    (mm)    (mm)    (mm)    (mm)    (mm)    (mm)    (mm)    (mm)    (mm)   (t/ha)  ------------------(kg nutrient/ha)-------------------- (kg/ha)
    1  549.60  172.29  250.22   13.83   35.65    0.00  100.32   98.73  142.81  436.97    8.59    0.01    0.44    0.58    0.00    26.79    0.01    3.28    0.00
    2  351.60   74.45  154.33   13.91   18.52    0.00  101.81  100.65  144.19  243.33    0.63    0.47    1.06    0.43    8.02     1.29    0.00    0.16    0.00
    3  222.80   39.30   81.46   15.23    5.69    0.00   68.73  132.48  167.22  136.76    0.27    0.01    0.07    0.13    8.72     0.31    0.00    0.04    0.00
    4  466.60   76.07  205.57   11.31   21.85    0.00  105.60  117.91  131.83  293.67    0.40    0.09    0.14    0.03    2.43     0.41    0.00    0.05    0.00
    5  221.20   41.04   98.60   12.98    8.13    0.00  103.66   82.90  141.42  153.38    0.18    0.00    0.12    0.02    1.19     0.16    0.00    0.02    0.00
    6  204.50   32.06   88.96   11.68   10.02    0.00   95.06   82.88  138.22  133.42    0.13    0.00    0.11    0.04    0.01     0.12    0.00    0.02    0.00
    7  729.10  442.35  167.09   10.64   25.54    0.00  107.88   66.80  111.61  620.69    2.38    0.04    0.31    0.16    0.37     3.95    0.04    0.61    0.00
    8  116.20    4.08   62.55   12.28    4.28    0.00   90.74   76.52  134.72   79.78    0.06    0.00    0.08    0.04    0.10     0.04    0.00    0.01    0.00
    9  109.60    9.46   40.44    5.78    1.45    0.00   89.42   59.93  137.71   56.34    0.19    0.00    0.07    0.02    0.08     0.22    0.00    0.03    0.00
   10   90.50    9.81   33.71    2.43    1.03    0.00   80.11   55.11  176.59   46.52    0.21    0.01    0.06    0.01    0.07     0.32    0.00    0.04    0.00
   11  332.20   54.23  155.33    3.27   15.17    0.00   99.58   87.66  134.78  213.30    1.88    0.01    0.36    0.21    0.00     2.79    0.00    0.35    0.00
   12  450.40  136.05  185.85    8.87   23.96    0.00  104.58   98.97  147.42  331.28    3.72    0.01    0.33    0.37    0.00     7.19    0.01    0.89    0.00

 2014 3844.30 1091.18 1524.11  122.22  171.29    0.00  104.58 1060.54 1708.52 2745.44   18.63    0.66    3.14    2.04   21.00    43.58    0.08    5.50    0.00
1
    SWAT Dec 23 2016    VER 2016/Rev 664                                            

    General Input/Output section (file.cio):                                        
    2/11/2020 16:57:02 QSWAT Workflow v1.5.2                                        
                                                                                    
Annual Summary for Watershed in year   11 of simulation

UNIT                                    PERCO    TILE                           WATER     SED     NO3     NO3     NO3     NO3        N       P       P
TIME     PREC    SURQ    LATQ     GWQ    LATE       Q     SW       ET     PET   YIELD   YIELD    SURQ    LATQ    PERC    CROP  ORGANIC SOLUBLE ORGANIC TILENO3
         (mm)    (mm)    (mm)    (mm)    (mm)    (mm)    (mm)    (mm)    (mm)    (mm)   (t/ha)  ------------------(kg nutrient/ha)-------------------- (kg/ha)
    1  682.50  233.99  292.97   16.24   45.38    0.00  105.49  102.71  139.10  543.86   15.71    0.01    0.46    0.75    0.00    34.91    0.02    4.27    0.00
    2  310.40   67.66  140.41   20.86   16.04    0.00   88.17  111.18  148.64  229.76    5.26    0.46    0.90    0.29    8.33     6.10    0.00    0.75    0.00
    3  174.40    7.95   63.13   18.15    2.29    0.00   87.50  101.48  136.36   90.20    0.08    0.00    0.02    0.04    7.32     0.06    0.00    0.01    0.00
    4  364.50  113.20  129.84   10.90   12.10    0.00   94.27  102.77  144.79  254.80    0.80    0.03    0.08    0.08    2.63     0.58    0.00    0.07    0.00
    5  421.40  104.71  190.77   12.39   25.04    0.00  104.13   90.63  126.07  308.70    0.47    0.01    0.21    0.06    0.70     0.34    0.00    0.04    0.00
    6  230.40   48.04  101.67   13.46   11.61    0.00  100.72   72.00  162.48  163.99    0.21    0.02    0.13    0.05    0.01     0.24    0.00    0.04    0.00
    7  101.30    3.43   40.48   10.77    3.03    0.00   82.38   73.68  169.86   55.49    0.02    0.01    0.06    0.01    0.37     0.04    0.00    0.01    0.00
    8  171.70   39.92   69.22    5.91    4.98    0.00   77.60   62.40  171.93  115.75    0.25    0.01    0.16    0.04    0.10     0.48    0.01    0.07    0.00
    9   30.50    0.03    7.56    2.50    0.00    0.00   68.28   32.23  151.13   10.65    0.00    0.00    0.02    0.00    0.07     0.00    0.00    0.00    0.00
   10  211.10   31.47   93.65    1.95    5.94    0.00   81.01   67.01  148.17  127.54    0.47    0.02    0.27    0.08    0.00     0.90    0.00    0.12    0.00
   11  541.90  204.36  213.09    3.46   28.06    0.00  102.18   73.40  148.96  421.30    7.66    0.01    0.50    0.41    0.00    12.85    0.01    1.61    0.00
   12  597.70  281.41  198.51   10.99   28.26    0.00  106.17   82.70  160.16  491.41   15.36    0.01    0.32    0.45    0.00    12.08    0.01    1.50    0.00

 2015 3837.80 1136.17 1541.29  127.59  182.74    0.00  106.17  972.18 1807.64 2813.44   46.29    0.60    3.15    2.27   19.52    68.58    0.06    8.48    0.00
1
    SWAT Dec 23 2016    VER 2016/Rev 664                                            

    General Input/Output section (file.cio):                                        
    2/11/2020 16:57:02 QSWAT Workflow v1.5.2                                        
                                                                                    
Annual Summary for Watershed in year   12 of simulation

UNIT                                    PERCO    TILE                           WATER     SED     NO3     NO3     NO3     NO3        N       P       P
TIME     PREC    SURQ    LATQ     GWQ    LATE       Q     SW       ET     PET   YIELD   YIELD    SURQ    LATQ    PERC    CROP  ORGANIC SOLUBLE ORGANIC TILENO3
         (mm)    (mm)    (mm)    (mm)    (mm)    (mm)    (mm)    (mm)    (mm)    (mm)   (t/ha)  ------------------(kg nutrient/ha)-------------------- (kg/ha)
    1  122.10    5.75   53.96   16.55    3.85    0.00   81.79   87.89  179.12   76.96    0.40    0.00    0.04    0.06    0.00     0.71    0.00    0.09    0.00
    2  182.20    8.75   77.40   10.52    4.18    0.00   80.60   92.77  176.46   97.32    0.11    0.29    0.71    0.10    9.61     0.30    0.00    0.04    0.00
    3  302.60   49.76  121.77    7.93    9.75    0.00   96.52  104.24  136.35  180.08    0.29    0.00    0.14    0.17    7.66     0.60    0.00    0.07    0.00
    4  986.50  431.41  385.33   13.38   63.71    0.00  108.69   82.06   98.98  830.70    1.20    0.01    0.12    0.23    1.44     2.38    0.01    0.30    0.00
    5   55.90   13.78   45.77   24.79    5.73    0.00   78.58   34.01  132.55   85.41    0.04    0.00    0.02    0.01    0.21     0.07    0.00    0.01    0.00
    6    2.60    0.00    0.37   15.54    0.00    0.00   68.54   12.25  133.43   16.86    0.00    0.00    0.01    0.00    0.01     0.00    0.00    0.00    0.00
    7  132.20   27.73   47.19    5.21    1.04    0.00   83.98   40.82  126.34   80.94    0.14    0.04    0.20    0.01    0.39     0.39    0.00    0.06    0.00
    8  160.10   11.31   63.22    1.22    2.53    0.00   83.96   82.48  189.32   76.39    0.11    0.02    0.17    0.02    0.10     0.17    0.00    0.03    0.00
    9  167.20   11.75   70.32    2.72    4.56    0.00   89.98   74.91  114.45   85.30    0.17    0.01    0.18    0.05    0.05     0.32    0.00    0.04    0.00
   10  159.00    4.57   60.94    2.75    3.80    0.00   92.38   83.57  159.80   68.68    0.10    0.01    0.12    0.05    0.00     0.13    0.00    0.02    0.00
   11  334.50  104.39  136.51    4.96   13.90    0.00   91.30   84.69  145.07  246.25    2.43    0.01    0.37    0.23    0.00     5.45    0.01    0.68    0.00
   12  398.80   85.53  185.14    8.14   23.71    0.00  102.34   90.82  134.21  279.23    4.63    0.01    0.41    0.41    0.00     6.90    0.01    0.85    0.00

 2016 3003.70  754.71 1247.91  113.70  136.75    0.00  102.34  870.51 1726.09 2124.12    9.62    0.40    2.49    1.32   19.49    17.42    0.04    2.19    0.00
1
    SWAT Dec 23 2016    VER 2016/Rev 664                                            

    General Input/Output section (file.cio):                                        
    2/11/2020 16:57:02 QSWAT Workflow v1.5.2                                        
                                                                                    
    FINAL VALUES

1
    SWAT Dec 23 2016    VER 2016/Rev 664                                            

    General Input/Output section (file.cio):                                        
    2/11/2020 16:57:02 QSWAT Workflow v1.5.2                                        
                                                                                    
                                            Average Plant Values (kg/ha)

  HRU       1 SUB   1 FRSE  Yld =  3637.5 BIOM =   5196.5
  HRU       2 SUB   1 FRSE  Yld =  4160.4 BIOM =   5943.5
  HRU       3 SUB   1 FRSE  Yld =  2500.5 BIOM =   3572.2
  HRU       4 SUB   1 FRSE  Yld =  2488.6 BIOM =   3555.1
  HRU       5 SUB   1 FRSE  Yld =  5091.8 BIOM =   7274.0
  HRU       6 SUB   2 FRSE  Yld =  4302.2 BIOM =   6145.9
  HRU       7 SUB   2 FRSE  Yld =  4230.3 BIOM =   6043.3
  HRU       8 SUB   2 FRSE  Yld =  4286.1 BIOM =   6123.0
  HRU       9 SUB   2 FRSE  Yld =  4224.4 BIOM =   6034.8
  HRU      10 SUB   2 AGRL  Yld =  5807.0 BIOM =  16690.0
  HRU      11 SUB   2 AGRL  Yld =  5804.8 BIOM =  16683.9
  HRU      12 SUB   2 AGRL  Yld =  5733.0 BIOM =  16478.8
  HRU      13 SUB   2 AGRL  Yld =  5512.5 BIOM =  15870.3
  HRU      14 SUB   2 SWCH  Yld = 25429.5 BIOM =  43820.7
  HRU      15 SUB   2 SWCH  Yld = 23105.8 BIOM =  40102.2
  HRU      16 SUB   2 FRSE  Yld =  3676.6 BIOM =   5252.3
  HRU      17 SUB   2 FRSE  Yld =  3645.8 BIOM =   5208.3
  HRU      18 SUB   2 FRSE  Yld =  4536.6 BIOM =   6480.8
  HRU      19 SUB   2 FRSE  Yld =  5212.2 BIOM =   7446.0
  HRU      20 SUB   2 FRSD  Yld =  3765.7 BIOM =   7895.6
  HRU      21 SUB   2 FRSD  Yld =  4090.4 BIOM =   8461.2
  HRU      22 SUB   2 BARR  Yld =     0.0 BIOM =      1.0
  HRU      23 SUB   3 BARR  Yld =     0.0 BIOM =      1.0
  HRU      24 SUB   3 BARR  Yld =     0.0 BIOM =      1.0
  HRU      25 SUB   3 BARR  Yld =     0.0 BIOM =      0.9
  HRU      26 SUB   3 BARR  Yld =     0.0 BIOM =      1.0
  HRU      27 SUB   3 BARR  Yld =     0.0 BIOM =      1.0
  HRU      28 SUB   3 AGRL  Yld =  5775.4 BIOM =  16599.5
  HRU      29 SUB   3 AGRL  Yld =  5498.0 BIOM =  15842.0
  HRU      30 SUB   3 SWCH  Yld = 25497.6 BIOM =  43961.8
  HRU      31 SUB   3 SWCH  Yld = 25547.2 BIOM =  44022.6
  HRU      32 SUB   3 FRSE  Yld =  3644.6 BIOM =   5206.6
  HRU      33 SUB   3 FRSE  Yld =  3808.1 BIOM =   5440.1
  HRU      34 SUB   3 FRSE  Yld =  5088.9 BIOM =   7269.8
  HRU      35 SUB   3 FRSD  Yld =  3562.7 BIOM =   7520.6
  HRU      36 SUB   3 FRSD  Yld =  3511.3 BIOM =   7416.0
  HRU      37 SUB   3 FRSD  Yld =  4096.9 BIOM =   8475.9
  HRU      38 SUB   3 BARR  Yld =     0.0 BIOM =      1.0
  HRU      39 SUB   3 BARR  Yld =     0.0 BIOM =      1.0
  HRU      40 SUB   4 FRSE  Yld =  4767.5 BIOM =   6810.7
  HRU      41 SUB   5 FRSE  Yld =  3369.0 BIOM =   4812.9
  HRU      42 SUB   5 FRSE  Yld =  3330.2 BIOM =   4757.5
  HRU      43 SUB   5 FRSE  Yld =  3331.9 BIOM =   4759.9
  HRU      44 SUB   5 FRSE  Yld =  5045.7 BIOM =   7208.1
  HRU      45 SUB   5 FRSD  Yld =  3349.6 BIOM =   7035.7
  HRU      46 SUB   5 FRSD  Yld =  2512.6 BIOM =   5354.3
  HRU      47 SUB   6 SWCH  Yld = 25245.9 BIOM =  43485.8
  HRU      48 SUB   6 SWCH  Yld = 23019.5 BIOM =  39964.3
  HRU      49 SUB   6 FRSE  Yld =  4691.3 BIOM =   6701.8
  HRU      50 SUB   6 FRSE  Yld =  3326.3 BIOM =   4751.9
  HRU      51 SUB   6 FRSE  Yld =  2499.6 BIOM =   3570.9
  HRU      52 SUB   6 FRSE  Yld =  2484.5 BIOM =   3549.4
  HRU      53 SUB   6 FRSE  Yld =  5022.2 BIOM =   7174.6
  HRU      54 SUB   6 FRSD  Yld =  3769.6 BIOM =   7929.9
  HRU      55 SUB   6 FRSD  Yld =  4111.9 BIOM =   8506.5
  HRU      56 SUB   6 FRSD  Yld =  3338.7 BIOM =   7015.1
  HRU      57 SUB   6 FRSD  Yld =  2964.2 BIOM =   6221.4
  HRU      58 SUB   6 FRSD  Yld =  3345.1 BIOM =   7029.2
  HRU      59 SUB   7 FRSE  Yld =  2501.1 BIOM =   3573.1
  HRU      60 SUB   7 FRSE  Yld =  5180.8 BIOM =   7401.1
  HRU      61 SUB   8 FRSE  Yld =  2500.9 BIOM =   3572.7
  HRU      62 SUB   8 FRSE  Yld =  2481.3 BIOM =   3544.8
  HRU      63 SUB   8 FRSE  Yld =  5081.3 BIOM =   7259.0
  HRU      64 SUB   9 FRSE  Yld =  3338.9 BIOM =   4769.9
  HRU      65 SUB   9 FRSE  Yld =  3337.2 BIOM =   4767.5
  HRU      66 SUB   9 FRSE  Yld =  2505.9 BIOM =   3579.9
  HRU      67 SUB   9 FRSE  Yld =  2489.4 BIOM =   3556.3
  HRU      68 SUB   9 FRSE  Yld =  4981.3 BIOM =   7116.1
  HRU      69 SUB   9 FRSE  Yld =  3380.9 BIOM =   4829.9
  HRU      70 SUB   9 FRSE  Yld =  3336.7 BIOM =   4766.7
  HRU      71 SUB   9 FRSE  Yld =  4492.4 BIOM =   6417.7
  HRU      72 SUB   9 FRSE  Yld =  3339.8 BIOM =   4771.2
  HRU      73 SUB   9 FRSE  Yld =  3322.8 BIOM =   4746.9
  HRU      74 SUB   9 FRSE  Yld =  3892.9 BIOM =   5561.3
  HRU      75 SUB  10 FRSE  Yld =  3365.9 BIOM =   4808.4
  HRU      76 SUB  10 FRSE  Yld =  3333.6 BIOM =   4762.3
  HRU      77 SUB  10 FRSE  Yld =  3332.0 BIOM =   4760.0
  HRU      78 SUB  10 FRSE  Yld =  5110.7 BIOM =   7301.0
  HRU      79 SUB  10 FRSD  Yld =  3504.6 BIOM =   7327.2
  HRU      80 SUB  10 FRSD  Yld =  2608.7 BIOM =   5550.6
  HRU      81 SUB  10 FRSD  Yld =  3357.5 BIOM =   7056.0
  HRU      82 SUB  10 FRSD  Yld =  3335.7 BIOM =   7009.1
  HRU      83 SUB  10 FRSD  Yld =  2747.1 BIOM =   5821.9
  HRU      84 SUB  10 FRSD  Yld =  3476.6 BIOM =   7274.0
  HRU      85 SUB  11 FRSE  Yld =  3655.2 BIOM =   5221.7
  HRU      86 SUB  11 FRSE  Yld =  4618.4 BIOM =   6597.7
  HRU      87 SUB  11 FRSE  Yld =  3366.9 BIOM =   4809.9
  HRU      88 SUB  11 FRSE  Yld =  3330.0 BIOM =   4757.1
  HRU      89 SUB  11 FRSE  Yld =  3340.7 BIOM =   4772.4
  HRU      90 SUB  11 FRSE  Yld =  5192.9 BIOM =   7418.4
  HRU      91 SUB  11 FRSE  Yld =  3783.4 BIOM =   5404.9
  HRU      92 SUB  11 FRSE  Yld =  3922.8 BIOM =   5604.1
  HRU      93 SUB  11 FRSE  Yld =  3574.3 BIOM =   5106.1
  HRU      94 SUB  11 FRSE  Yld =  4743.9 BIOM =   6777.0
  HRU      95 SUB  11 AGRL  Yld =  5790.5 BIOM =  16643.0

    HRU STATISTICS

                AVE ANNUAL VALUES

   HRU  SUB  SOIL       AREAkm2    CN     AWCmm   USLE_LS  IRRmm  AUTONkh AUTOPkh  MIXEF PRECmm SURQGENmm   GWQmm    ETmm   SEDth  NO3kgh  ORGNkgh BIOMth   YLDth  SURQmm
      1   1   OLOAVA     .369E-02   55.00  149.80    0.33    0.00    0.00    0.00    0.20 3445.52  512.12 1704.86 1095.97    0.90    0.09   17.86    5.20    3.64  512.11
      2   1   OLOAVA     .703E-01   55.00  149.80    3.06    0.00    0.00    0.00    0.20 3445.52  507.01 1791.25 1084.85   11.23    2.04   49.91    5.94    4.16  507.01
      3   1   FAGASA     .410E-03   70.00   97.20    0.09    0.00    0.00    0.00    0.20 3445.52 1009.48 1325.27  997.01    0.18    0.02    3.24    3.57    2.50 1009.24
      4   1   FAGASA     .103E-03   70.00   97.20    0.31    0.00    0.00    0.00    0.20 3445.52 1009.27 1326.44  996.77    0.69    0.04    9.43    3.56    2.49 1009.24
      5   1   FAGASA     .284E+00   70.00   97.20    7.80    0.00    0.00    0.00    0.20 3445.52  921.58 1565.79  928.53   26.60    1.70   42.15    7.27    5.09  921.58
      6   2   OLOAVA     .205E-03   70.00  149.80    0.29    0.00    0.00    0.00    0.20 3445.52 1034.71 1207.44 1095.17    0.95    0.09   19.46    6.15    4.30 1034.68
      7   2   OLOAVA     .451E-02   70.00  149.80    2.55    0.00    0.00    0.00    0.20 3445.52 1033.38 1221.46 1093.99   14.36    0.51   53.66    6.04    4.23 1033.38
      8   2   OLOAVA     .923E-03   70.00  149.80    0.33    0.00    0.00    0.00    0.20 3445.52 1034.33 1208.58 1095.10    1.41    0.12   24.81    6.12    4.29 1034.32
      9   2   OLOAVA     .677E-02   70.00  149.80    2.17    0.00    0.00    0.00    0.20 3445.52 1033.47 1220.11 1094.14   12.86    0.47   53.00    6.03    4.22 1033.47
     10   2   OLOAVA     .205E-03   77.00  149.80    0.07    0.00  180.97    0.00    0.20 3445.52 1369.11  954.09 1028.02    0.34    9.25   12.22   16.69    5.81 1367.92
     11   2   OLOAVA     .205E-03   77.00  149.80    0.31    0.00  181.89    0.00    0.20 3445.52 1368.45  956.48 1027.64    2.93    9.01   43.37   16.68    5.80 1368.42
     12   2   OLOAVA     .433E-01   77.00  149.80    2.97    0.00  201.55    0.00    0.20 3445.52 1348.25 1050.07 1008.80   61.06   28.17   81.77   16.48    5.73 1348.25
     13   2   FAGASA     .298E-02   83.00   97.20    4.61    0.00  204.88    0.00    0.20 3445.52 1596.18  917.56  904.09   39.05   40.27   59.38   15.87    5.51 1596.18
     14   2   OLOAVA     .227E-01   59.00  149.80    3.40    0.00  142.40    0.00    0.20 3445.52  600.71 1700.32 1087.69    0.38   11.08    8.14   39.09   25.43  600.71
     15   2   FAGASA     .103E-03   72.00   97.20    5.36    0.00  151.11    0.00    0.20 3445.52  912.93 1508.51  988.39    0.14   17.81    1.91   35.59   23.11  912.93
     16   2   OLOAVA     .205E-03   55.00  149.80    0.07    0.00    0.00    0.00    0.20 3445.52  513.25 1701.11 1096.20    0.07    0.01    2.26    5.25    3.68  513.04
     17   2   OLOAVA     .616E-03   55.00  149.80    0.35    0.00    0.00    0.00    0.20 3445.52  512.06 1705.04 1095.96    0.75    0.10   15.66    5.21    3.65  512.06
     18   2   OLOAVA     .558E-01   55.00  149.80    3.11    0.00    0.00    0.00    0.20 3445.52  499.59 1829.76 1070.80   10.09    2.45   48.70    6.48    4.54  499.59
     19   2   FAGASA     .179E+00   70.00   97.20    9.28    0.00    0.00    0.00    0.20 3445.52  897.38 1612.16  918.46   28.68    1.65   42.26    7.45    5.21  897.39
     20   2   OLOAVA     .564E-02   66.00  149.80    3.83    0.00    0.00    0.00    0.20 3445.52  863.43 1438.19 1092.86    5.21    1.86   46.84    8.07    5.65  863.43
     21   2   FAGASA     .462E-02   77.00   97.20    7.57    0.00    0.00    0.00    0.20 3445.52 1189.82 1300.09  942.69    6.18    1.44   35.50    8.77    6.14 1189.82
     22   2   OLOAVA     .226E-02   86.00  149.80    2.54    0.00    0.00    0.00    0.20 3445.52 1901.69  470.18 1031.43  169.46    2.50   64.78    0.00    0.00 1901.69
     23   3   OLOAVA     .410E-03   86.00  149.80    0.31    0.00    0.00    0.00    0.20 3445.52 1909.64  426.86 1047.25   14.79    0.34   59.60    0.00    0.00 1909.61
     24   3   OLOAVA     .677E-02   86.00  149.80    1.13    0.00    0.00    0.00    0.20 3445.52 1909.10  431.59 1045.81   83.13    0.63   64.46    0.00    0.00 1909.10
     25   3   FAGASA     .103E-03   86.00   97.20    6.34    0.00    0.00    0.00    0.20 3445.52 1771.12  811.78  860.26  130.14    2.03   49.52    0.00    0.00 1771.12
     26   3   OLOAVA     .616E-03   86.00  149.80    0.38    0.00    0.00    0.00    0.20 3445.52 1909.58  427.15 1047.17   19.20    0.35   60.99    0.00    0.00 1909.56
     27   3   OLOAVA     .954E-02   86.00  149.80    1.13    0.00    0.00    0.00    0.20 3445.52 1909.10  431.59 1045.81   86.61    0.63   64.49    0.00    0.00 1909.10
     28   3   OLOAVA     .601E-01   77.00  149.80    2.19    0.00  186.71    0.00    0.20 3445.52 1365.60  990.50 1024.10   46.96   18.88   79.55   16.60    5.78 1365.60
     29   3   FAGASA     .325E-01   83.00   97.20    6.27    0.00  221.37    0.00    0.20 3445.52 1554.94  988.67  891.39   68.96   44.28   62.69   15.84    5.50 1554.94
     30   3   OLOAVA     .123E-02   59.00  149.80    0.38    0.00  131.46    0.00    0.20 3445.52  617.46 1603.94 1092.90    0.02    1.22    0.56   39.20   25.50  617.46
     31   3   OLOAVA     .444E-01   59.00  149.80    1.78    0.00  136.87    0.00    0.20 3445.52  612.78 1651.31 1091.55    0.22    6.38    4.99   39.28   25.55  612.78
     32   3   OLOAVA     .205E-03   55.00  149.80    0.44    0.00    0.00    0.00    0.20 3445.52  512.01 1705.67 1095.93    0.84    0.11   16.83    5.21    3.64  512.01
     33   3   OLOAVA     .711E-01   55.00  149.80    2.29    0.00    0.00    0.00    0.20 3445.52  509.97 1753.30 1091.44    9.20    1.32   48.52    5.44    3.81  509.97
     34   3   FAGASA     .251E+00   70.00   97.20    7.78    0.00    0.00    0.00    0.20 3445.52  921.95 1564.95  928.72   26.18    1.70   42.09    7.27    5.09  921.95
     35   3   OLOAVA     .103E-03   66.00  149.80    0.42    0.00    0.00    0.00    0.20 3445.52  871.80 1355.99 1104.38    0.32    0.12    7.50    7.63    5.34  871.80
     36   3   OLOAVA     .119E-01   66.00  149.80    1.18    0.00    0.00    0.00    0.20 3445.52  871.50 1362.95 1103.78    1.96    0.32   29.67    7.52    5.27  871.50
     37   3   FAGASA     .390E-02   77.00   97.20    7.88    0.00    0.00    0.00    0.20 3445.52 1180.65 1314.17  939.75    6.25    1.43   35.60    8.78    6.15 1180.65
     38   3   OLOAVA     .103E-03   86.00  149.80    0.44    0.00    0.00    0.00    0.20 3445.52 1909.56  427.34 1047.11   17.84    0.37   60.58    0.00    0.00 1909.55
     39   3   OLOAVA     .298E-02   86.00  149.80    2.31    0.00    0.00    0.00    0.20 3445.52 1908.70  435.03 1044.70  155.98    0.84   64.77    0.00    0.00 1908.71
     40   4   FAGASA     .346E+00   70.00   97.20    5.80    0.00    0.00    0.00    0.20 3445.52  947.37 1518.53  943.55   22.20    1.74   41.72    6.81    4.77  947.37
     41   5   LEAFU      .103E-03   70.00  196.50    0.14    0.00    0.00    0.00    0.20 3445.52 1032.54 1203.79 1099.74    0.98    0.03    9.57    4.81    3.37 1032.45
     42   5   LEAFU      .513E-03   70.00  196.50    0.36    0.00    0.00    0.00    0.20 3445.52 1032.20 1205.18 1099.51    3.91    0.06   20.86    4.76    3.33 1032.19
     43   5   LEAFU      .236E-02   70.00  196.50    1.95    0.00    0.00    0.00    0.20 3445.52 1030.65 1212.89 1098.32   26.83    0.20   30.79    4.76    3.33 1030.65
     44   5   FAGASA     .245E+00   70.00   97.20    7.41    0.00    0.00    0.00    0.20 3445.52  927.15 1553.29  931.21   25.18    1.71   42.01    7.21    5.05  927.15
     45   5   LEAFU      .103E-03   77.00  196.50    2.55    0.00    0.00    0.00    0.20 3445.52 1359.94  899.07 1105.73    8.69    0.24   29.21    7.18    5.02 1359.94
     46   5   FAGASA     .205E-03   77.00   97.20    2.11    0.00    0.00    0.00    0.20 3445.52 1336.14 1012.16 1008.66    2.64    0.23   24.64    5.38    3.77 1336.14
     47   6   OLOAVA     .215E-02   59.00  149.80    3.11    0.00  147.33    0.00    0.20 3445.52  581.49 1740.91 1081.23    0.25   13.79    5.68   38.81   25.25  581.49
     48   6   FAGASA     .400E-02   72.00   97.20    5.78    0.00  151.04    0.00    0.20 3445.52  899.36 1525.51  985.19    0.38   17.88    5.10   35.46   23.02  899.36
     49   6   OLOAVA     .196E-01   55.00  149.80   10.35    0.00    0.00    0.00    0.20 3445.52  473.21 1897.90 1039.96   27.65    2.57   54.20    6.70    4.69  473.21
     50   6   LEAFU      .195E-02   70.00  196.50    1.56    0.00    0.00    0.00    0.20 3445.52 1030.80 1211.96 1098.53   20.95    0.17   30.15    4.75    3.33 1030.80
     51   6   FAGASA     .308E-03   70.00   97.20    0.11    0.00    0.00    0.00    0.20 3445.52 1009.46 1325.41  996.93    0.23    0.03    3.84    3.57    2.50 1009.31
     52   6   FAGASA     .308E-03   70.00   97.20    0.31    0.00    0.00    0.00    0.20 3445.52 1009.28 1326.46  996.70    0.82    0.04   11.01    3.55    2.48 1009.25
     53   6   FAGASA     .180E+00   70.00   97.20    7.23    0.00    0.00    0.00    0.20 3445.52  929.64 1548.10  932.51   23.87    1.71   41.84    7.17    5.02  929.64
     54   6   OLOAVA     .462E-02   66.00  149.80    6.55    0.00    0.00    0.00    0.20 3445.52  835.94 1510.63 1065.22    8.48    2.26   53.96    8.08    5.65  835.94
     55   6   FAGASA     .718E-03   77.00   97.20    8.38    0.00    0.00    0.00    0.20 3445.52 1166.14 1336.15  935.05    5.34    1.43   33.48    8.81    6.17 1166.14
     56   6   LEAFU      .821E-03   77.00  196.50    2.27    0.00    0.00    0.00    0.20 3445.52 1360.04  898.39 1105.90   10.10    0.22   30.44    7.15    5.01 1360.04
     57   6   FAGASA     .103E-03   77.00   97.20    3.08    0.00    0.00    0.00    0.20 3445.52 1316.20 1079.85  996.46    2.80    1.16   25.21    6.35    4.45 1316.20
     58   6   LEAFU      .308E-03   77.00  196.50    1.08    0.00    0.00    0.00    0.20 3445.52 1360.51  894.96 1106.66    4.19    0.17   22.08    7.17    5.02 1360.51
     59   7   FAGASA     .308E-03   70.00   97.20    0.09    0.00    0.00    0.00    0.20 3445.52 1009.49 1325.28  996.96    0.17    0.02    3.07    3.57    2.50 1009.24
     60   7   FAGASA     .518E-01   70.00   97.20    8.73    0.00    0.00    0.00    0.20 3445.52  907.72 1594.11  922.33   23.61    1.67   41.63    7.40    5.18  907.72
     61   8   FAGASA     .164E-02   70.00   97.20    0.07    0.00    0.00    0.00    0.20 3445.52 1009.52 1325.14  996.98    0.15    0.02    3.03    3.57    2.50 1008.95
     62   8   FAGASA     .923E-03   70.00   97.20    0.31    0.00    0.00    0.00    0.20 3445.52 1009.16 1327.10  996.58    1.02    0.05   12.81    3.54    2.48 1009.15
     63   8   FAGASA     .489E-01   70.00   97.20    7.67    0.00    0.00    0.00    0.20 3445.52  923.49 1561.65  929.39   21.30    1.71   41.33    7.26    5.08  923.49
     64   9   LEAFU      .205E-03   70.00  196.50    0.33    0.00    0.00    0.00    0.20 3445.52 1032.23 1205.04 1099.53    3.13    0.05   18.83    4.77    3.34 1032.22
     65   9   LEAFU      .421E-02   70.00  196.50    2.34    0.00    0.00    0.00    0.20 3445.52 1030.51 1213.65 1098.15   34.55    0.22   31.31    4.77    3.34 1030.51
     66   9   FAGASA     .103E-03   70.00   97.20    0.07    0.00    0.00    0.00    0.20 3445.52 1009.53 1325.07  996.99    0.03    0.02    0.70    3.58    2.51 1007.68
     67   9   FAGASA     .103E-03   70.00   97.20    0.31    0.00    0.00    0.00    0.20 3445.52 1009.15 1327.07  996.60    0.74    0.05    9.75    3.56    2.49 1009.14
     68   9   FAGASA     .212E+00   70.00   97.20    6.95    0.00    0.00    0.00    0.20 3445.52  933.30 1542.52  934.53   23.65    1.72   41.84    7.12    4.98  933.30
     69   9   LEAFU      .103E-03   70.00  196.50    0.08    0.00    0.00    0.00    0.20 3445.52 1032.62 1203.47 1099.79    0.45    0.03    5.52    4.83    3.38 1032.27
     70   9   LEAFU      .410E-03   70.00  196.50    0.31    0.00    0.00    0.00    0.20 3445.52 1032.25 1204.96 1099.54    3.25    0.05   19.21    4.77    3.34 1032.24
     71   9   FAGASA     .195E-02   70.00   97.20    4.68    0.00    0.00    0.00    0.20 3445.52  959.25 1495.06  952.37   10.38    1.77   37.80    6.42    4.49  959.25
     72   9   LEAFU      .103E-03   70.00  196.50    0.36    0.00    0.00    0.00    0.20 3445.52 1032.19 1205.18 1099.51    3.16    0.06   18.90    4.77    3.34 1032.18
     73   9   LEAFU      .185E-02   70.00  196.50    1.28    0.00    0.00    0.00    0.20 3445.52 1030.92 1211.11 1098.64   17.12    0.16   29.50    4.75    3.32 1030.92
     74   9   FAGASA     .144E-02   70.00   97.20    3.09    0.00    0.00    0.00    0.20 3445.52  973.51 1461.86  965.69    7.72    1.72   36.05    5.56    3.89  973.51
     75  10   LEAFU      .205E-03   70.00  196.50    0.14    0.00    0.00    0.00    0.20 3445.52 1032.55 1203.81 1099.70    1.09    0.03   10.42    4.81    3.37 1032.46
     76  10   LEAFU      .718E-03   70.00  196.50    0.31    0.00    0.00    0.00    0.20 3445.52 1032.26 1204.98 1099.50    3.48    0.05   19.85    4.76    3.33 1032.25
     77  10   LEAFU      .108E-01   70.00  196.50    2.17    0.00    0.00    0.00    0.20 3445.52 1030.58 1213.29 1098.18   35.93    0.21   31.38    4.76    3.33 1030.58
     78  10   FAGASA     .476E-01   70.00   97.20    7.94    0.00    0.00    0.00    0.20 3445.52  919.72 1569.94  927.54   21.76    1.70   41.38    7.30    5.11  919.72
     79  10   LEAFU      .113E-02   77.00  196.50    2.12    0.00    0.00    0.00    0.20 3445.52 1356.71  918.46 1101.47    9.11    0.56   29.51    7.51    5.26 1356.71
     80  10   FAGASA     .718E-03   77.00   97.20    1.67    0.00    0.00    0.00    0.20 3445.52 1331.73 1035.60 1004.91    2.36    0.58   23.01    5.59    3.91 1331.73
     81  10   LEAFU      .103E-03   77.00  196.50    0.46    0.00    0.00    0.00    0.20 3445.52 1361.45  890.73 1107.41    1.41    0.10   11.58    7.19    5.04 1361.44
     82  10   LEAFU      .328E-02   77.00  196.50    2.69    0.00    0.00    0.00    0.20 3445.52 1359.91  899.43 1105.58   14.16    0.24   32.78    7.15    5.00 1359.91
     83  10   FAGASA     .923E-03   77.00   97.20    2.36    0.00    0.00    0.00    0.20 3445.52 1325.32 1058.66 1000.53    3.20    0.90   27.45    5.89    4.12 1325.32
     84  10   LEAFU      .431E-02   77.00  196.50    1.69    0.00    0.00    0.00    0.20 3445.52 1357.41  914.68 1102.34    8.66    0.51   29.11    7.45    5.21 1357.41
     85  11   OLOAVA     .103E-03   55.00  149.80    0.36    0.00    0.00    0.00    0.20 3445.52  512.03 1705.22 1095.83    0.61    0.10   13.10    5.22    3.66  512.03
     86  11   OLOAVA     .156E-01   55.00  149.80    5.46    0.00    0.00    0.00    0.20 3445.52  492.17 1854.04 1059.61   14.82    2.54   51.51    6.60    4.62  492.17
     87  11   LEAFU      .103E-03   70.00  196.50    0.15    0.00    0.00    0.00    0.20 3445.52 1032.53 1203.85 1099.71    1.08    0.04   10.27    4.81    3.37 1032.45
     88  11   LEAFU      .923E-03   70.00  196.50    0.31    0.00    0.00    0.00    0.20 3445.52 1032.40 1204.45 1099.60    3.36    0.04   19.81    4.76    3.33 1032.37
     89  11   LEAFU      .216E-01   70.00  196.50    2.73    0.00    0.00    0.00    0.20 3445.52 1030.39 1214.50 1097.98   48.98    0.24   31.86    4.77    3.34 1030.39
     90  11   FAGASA     .835E-01   70.00   97.20    8.91    0.00    0.00    0.00    0.20 3445.52  904.35 1600.10  921.09   25.38    1.67   41.88    7.42    5.19  904.35
     91  11   LEAFU      .226E-02   70.00  196.50    2.45    0.00    0.00    0.00    0.20 3445.52 1025.48 1254.43 1090.39   30.17    0.87   30.97    5.40    3.78 1025.48
     92  11   FAGASA     .718E-03   70.00   97.20    3.15    0.00    0.00    0.00    0.20 3445.52  972.96 1463.26  965.16    7.18    1.73   35.43    5.60    3.92  972.96
     93  11   LEAFU      .718E-03   70.00  196.50    2.09    0.00    0.00    0.00    0.20 3445.52 1027.84 1234.94 1094.30   23.74    0.60   30.43    5.11    3.57 1027.84
     94  11   FAGASA     .103E-03   70.00   97.20    5.56    0.00    0.00    0.00    0.20 3445.52  950.10 1513.38  945.35    8.05    1.78   35.73    6.78    4.74  950.10
     95  11   OLOAVA     .103E-02   77.00  149.80    1.73    0.00  184.68    0.00    0.20 3445.52 1366.16  987.60 1023.94   22.81   14.20   74.70   16.64    5.79 1366.16



                AVE MONTHLY BASIN VALUES
                   SNOW                      WATER               SED
  MON     RAIN     FALL   SURF Q    LAT Q    YIELD       ET    YIELD      PET
          (MM)     (MM)     (MM)     (MM)     (MM)     (MM)   (T/HA)     (MM)
    1   482.70     0.00   142.75   216.95   376.16    94.58     8.66   144.60
    2   253.79     0.00    49.28   115.95   182.65    95.69     2.81   147.85
    3   198.40     0.00    24.36    74.64   113.83   105.83     0.16   138.84
    4   514.12     0.00   164.11   203.37   377.99    92.05     0.68   122.00
    5   208.30     0.00    40.58    99.95   154.42    71.66     0.18   133.41
    6   184.15     0.00    46.29    75.10   133.14    56.91     0.25   130.66
    7   302.85     0.00   123.23    96.32   228.36    64.11     0.67   127.69
    8   228.95     0.00    55.88    96.88   160.95    73.86     0.50   152.14
    9   118.50     0.00    10.26    46.15    62.99    63.09     0.20   138.41
   10   173.77     0.00    25.20    67.48    97.22    70.97     0.59   162.03
   11   347.38     0.00    98.04   143.79   246.61    80.91     3.34   144.69
   12   439.18     0.00   139.18   176.67   325.10    92.92     7.06   146.91

     AVE ANNUAL BASIN STRESS DAYS
               WATER STRESS DAYS =     1.52
               TEMPERATURE STRESS DAYS =     0.13
               NITROGEN STRESS DAYS =    12.34
               PHOSPHORUS STRESS DAYS =     0.05
               AERATION STRESS DAYS =     0.00
1
    SWAT Dec 23 2016    VER 2016/Rev 664                                            

    General Input/Output section (file.cio):                                        
    2/11/2020 16:57:02 QSWAT Workflow v1.5.2                                        
                                                                                    
         AVE ANNUAL BASIN VALUES

              PRECIP =   3445.5 MM
              SNOW FALL =    0.00 MM
              SNOW MELT =     0.00 MM
              SUBLIMATION =     0.00 MM
              SURFACE RUNOFF Q =   917.89 MM
              LATERAL SOIL Q = 1410.24 MM
              TILE Q =     0.00 MM
              GROUNDWATER (SHAL AQ) Q =   118.65 MM
              GROUNDWATER (DEEP AQ) Q =     7.92 MM
              REVAP (SHAL AQ => SOIL/PLANTS) =   33.71 MM
              DEEP AQ RECHARGE =     7.73 MM
              TOTAL AQ RECHARGE =  154.51 MM
              TOTAL WATER YLD =  2454.70 MM
              PERCOLATION OUT OF SOIL =  155.94 MM
              ET =    960.1 MM
              PET =   1685.4MM
              TRANSMISSION LOSSES =     0.00 MM
              SEPTIC INFLOW =       0.00 MM
              TOTAL SEDIMENT LOADING =     25.04 T/HA
              TILE FROM IMPOUNDED WATER =     0.000 (MM)
              EVAPORATION FROM IMPOUNDED WATER =     0.000 (MM)
              SEEPAGE INTO SOIL FROM IMPOUNDED WATER =    0.000 (MM)
              OVERFLOW FROM IMPOUNDED WATER =    0.000 (MM)
1
    SWAT Dec 23 2016    VER 2016/Rev 664                                            

    General Input/Output section (file.cio):                                        
    2/11/2020 16:57:02 QSWAT Workflow v1.5.2                                        
                                                                                    
              AVE ANNUAL BASIN VALUES


              NUTRIENTS
                   ORGANIC N =    43.254 (KG/HA)
                   ORGANIC P =     5.390 (KG/HA)
                   NO3 YIELD (SQ) =     0.618 (KG/HA)
                   NO3 YIELD (LAT) =    2.723 (KG/HA)
                   NO3 YIELD (TILE) =    0.000 (KG/HA)
                   SOLP YIELD (TILE) =    0.000(KG/HA)
                   SOLP YIELD (SURF INLET RISER) =    0.000 (KG/HA)
                   SOL P YIELD =    0.058 (KG/HA)
                   NO3 LEACHED =     1.808 (KG/HA)
                   P LEACHED =     0.059 (KG/HA)
                   N UPTAKE =    19.660 (KG/HA)
                   P UPTAKE =    4.400 (KG/HA)
                   NO3 YIELD (GWQ) =     0.025 (KG/HA)
                   ACTIVE TO SOLUTION P FLOW =        -2.087 (KG/HA)
                   ACTIVE TO STABLE P FLOW =        -1.272 (KG/HA)
                   N FERTILIZER APPLIED =    15.263 (KG/HA)
                   P FERTILIZER APPLIED =     0.000 (KG/HA)
                   N FIXATION =     0.000 (KG/HA)
                   DENITRIFICATION =     0.000 (KG/HA)
                   HUMUS MIN ON ACTIVE ORG N =    12.156 (KG/HA)
                   ACTIVE TO STABLE ORG N =   -10.260 (KG/HA)
                   HUMUS MIN ON ACTIVE ORG P =    2.075 (KG/HA)
                   MIN FROM FRESH ORG N =    3.974 (KG/HA)
                   MIN FROM FRESH ORG P =    0.939 (KG/HA)
                   NO3 IN RAINFALL =     0.000 (KG/HA)
                   INITIAL NO3 IN SOIL =      36.429 (KG/HA)
                   FINAL NO3 IN SOIL =         5.976 (KG/HA)
                   INITIAL ORG N IN SOIL =   11240.459 (KG/HA)
                   FINAL ORG N IN SOIL =     10297.742 (KG/HA)
                   INITIAL MIN P IN SOIL =    1897.514 (KG/HA)
                   FINAL MIN P IN SOIL =      1797.564 (KG/HA)
                   INITIAL ORG P IN SOIL =    1376.957 (KG/HA)
                   FINAL ORG P IN SOIL =    1255.038 (KG/HA)
                   NO3 IN FERT =    15.263 (KG/HA)
                   AMMONIA IN FERT =     0.000 (KG/HA)
                   ORG N IN FERT =     0.000 (KG/HA)
                   MINERAL P IN FERT =     0.000 (KG/HA)
                   ORG P IN FERT =     0.000 (KG/HA)
                   N REMOVED IN YIELD =    14.458 (KG/HA)
                   P REMOVED IN YIELD =     3.171 (KG/HA)
                   AMMONIA VOLATILIZATION =     0.000 (KG/HA)
                   AMMONIA NITRIFICATION =      0.000 (KG/HA)
                   NO3 EVAP-LAYER 2 TO 1 =    6.889

                   DIE-GRO P Q =           0.0 (No/M2)
                   DIE-GRO LP Q =           0.0 (No/M2)
                   DIE-GRO P SED =          0.0 (No/M2)
                   DIE-GRO LP SED =          0.0 (No/M2)
                   BACT P RUNOFF =          0.0 (No/M2)
                   BACT LP RUNOFF =          0.0 (No/M2)
                   BACT P SEDIMENT =          0.0 (No/M2)
                   BACT LP SEDIMENT =          0.0 (No/M2)
                   BACT P INCORP =          0.0 (No/M2)
                   BACT LP INCORP =          0.0 (No/M2)

                   NITRATE SEPTIC =         0.00 (kg/ha)
                   AMMONIA SEPTIC =         0.00 (kg/ha)
                   ORG N SEPTIC =         0.00 (kg/ha)
                   FRESH ORGN SEPTIC =         0.00 (kg/ha)
                   ORG P SEPTIC =         0.00 (kg/ha)
                   FRESH ORGP SEPTIC =         0.00 (kg/ha)
                   SOL P SEPTIC =         0.00 (kg/ha)
                   BOD SEPTIC =         0.00 (kg/ha)
