1
    SWAT Dec 23 2016    VER 2016/Rev 664                                                                 0/ 0/   0      0: 0: 0

    General Input/Output section (file.cio):                                        
    2/11/2020 16:57:02 QSWAT Workflow v1.5.2                                        
                                                                                    


       SUB      GIS  MON   AREAkm2  PRECIPmm SNOMELTmm     PETmm      ETmm      SWmm    PERCmm    SURQmm    GW_Qmm    WYLDmm  SYLDt/ha ORGNkg/ha ORGPkg/haNSURQkg/ha SOLPkg/ha SEDPkg/ha LAT Q(mm)LATNO3kg/hGWNO3kg/haCHOLAmic/LCBODU mg/L DOXQ mg/L TNO3kg/ha   QTILEmm TVAPkg/ha
BIGSUB   1        0    1.35860E+00   576.600     0.000   117.392    89.400   106.941    35.455   143.374    13.245   448.606    10.263    24.501     2.993     0.004     0.009     2.376   291.331     0.426     0.002 .00000E+00 0.000E+00 0.000E+00 0.000E+00 0.000E+00 0.000E+00
BIGSUB   2        0    1.32997E+00   576.600     0.000   117.396    89.988   118.953    35.635   153.580    15.123   451.886     9.957    24.073     2.958     0.013     0.016     2.278   282.526     0.547     0.003 .00000E+00 0.000E+00 0.000E+00 0.000E+00 0.000E+00 0.000E+00
BIGSUB   3        0    1.49752E+00   576.600     0.000   117.402    89.911   118.258    87.509   166.911    41.942   429.002     9.055    22.355     2.756     0.016     0.018     2.092   218.385     0.457     0.016 .00000E+00 0.000E+00 0.000E+00 0.000E+00 0.000E+00 0.000E+00
BIGSUB   4        0    1.34608E+00   576.600     0.000   117.370    88.157    96.088    19.511   163.916     4.982   456.070     9.408    23.669     2.891     0.004     0.009     2.315   286.878     0.440     0.000 .00000E+00 0.000E+00 0.000E+00 0.000E+00 0.000E+00 0.000E+00
BIGSUB   5        0    1.24789E+00   576.600     0.000   117.324    87.850    97.318    16.350   163.265     1.889   455.641    11.204    25.104     3.067     0.004     0.009     2.460   290.247     0.426     0.001 .00000E+00 0.000E+00 0.000E+00 0.000E+00 0.000E+00 0.000E+00
BIGSUB   6        0    1.21516E+00   576.600     0.000   117.344    88.409   103.958    18.739   154.273     2.962   454.889     9.922    23.686     2.894     0.009     0.011     2.307   297.371     0.472     0.001 .00000E+00 0.000E+00 0.000E+00 0.000E+00 0.000E+00 0.000E+00
BIGSUB   7        0    1.52122E-01   576.600     0.000   117.341    87.508    96.086    11.077   162.227     0.991   459.633    10.851    25.175     3.075     0.005     0.009     2.464   296.276     0.418     0.000 .00000E+00 0.000E+00 0.000E+00 0.000E+00 0.000E+00 0.000E+00
BIGSUB   8        0    1.51507E-01   576.600     0.000   117.339    87.830    96.087    27.199   162.881     8.310   451.855     9.122    23.141     2.827     0.005     0.011     2.260   280.175     0.409     0.003 .00000E+00 0.000E+00 0.000E+00 0.000E+00 0.000E+00 0.000E+00
BIGSUB   9        0    1.22296E+00   576.600     0.000   117.320    88.105    99.147    23.227   163.574     5.122   452.298    10.290    24.251     2.963     0.004     0.009     2.376   283.218     0.422     0.002 .00000E+00 0.000E+00 0.000E+00 0.000E+00 0.000E+00 0.000E+00
BIGSUB  10        0    1.69770E-01   576.600     0.000   117.289    88.998   125.301    82.635   174.458    37.960   428.192     8.732    19.640     2.400     0.007     0.014     1.939   214.174     0.312     0.011 .00000E+00 0.000E+00 0.000E+00 0.000E+00 0.000E+00 0.000E+00
BIGSUB  11        0    1.12671E+00   576.600     0.000   117.311    89.963   123.129    64.328   152.485    29.635   436.325    11.732    24.139     2.950     0.005     0.009     2.375   252.940     0.354     0.010 .00000E+00 0.000E+00 0.000E+00 0.000E+00 0.000E+00 0.000E+00
BIGSUB   1        0    2.35860E+00   144.700     0.000   106.889    69.465    57.635    10.051    37.659    14.881   138.060     5.190     6.850     0.837     0.000     0.001     0.663    84.793     0.112     0.003 .00000E+00 0.000E+00 0.000E+00 0.000E+00 0.000E+00 0.000E+00
BIGSUB   2        0    2.32997E+00   144.700     0.000   106.897    68.028    71.064    10.186    39.930    17.555   138.425     4.915     6.334     0.777     0.179     0.002     0.602    80.208     0.156     0.004 .00000E+00 0.000E+00 0.000E+00 0.000E+00 0.000E+00 0.000E+00
BIGSUB   3        0    2.49752E+00   144.700     0.000   106.911    66.486    71.851    23.807    42.818    46.553   155.356     4.330     5.768     0.710     3.438     0.003     0.544    64.084     0.438     0.021 .00000E+00 0.000E+00 0.000E+00 0.000E+00 0.000E+00 0.000E+00
BIGSUB   4        0    2.34608E+00   144.700     0.000   106.837    68.536    47.558     6.164    42.252     9.795   138.198     4.659     6.475     0.791     0.000     0.002     0.634    85.797     0.117     0.001 .00000E+00 0.000E+00 0.000E+00 0.000E+00 0.000E+00 0.000E+00
BIGSUB   5        0    2.24789E+00   144.700     0.000   106.733    68.500    48.815     5.254    42.285     2.107   131.537     5.600     6.709     0.820     0.000     0.001     0.659    86.853     0.119     0.001 .00000E+00 0.000E+00 0.000E+00 0.000E+00 0.000E+00 0.000E+00
BIGSUB   6        0    2.21516E+00   144.700     0.000   106.778    68.840    55.145     5.883    40.140     4.620   132.196     5.026     6.525     0.797     0.001     0.002     0.636    87.096     0.122     0.001 .00000E+00 0.000E+00 0.000E+00 0.000E+00 0.000E+00 0.000E+00
BIGSUB   7        0    2.52122E-01   144.700     0.000   106.772    68.446    47.638     3.788    42.274     1.082   132.023     5.465     6.816     0.833     0.000     0.002     0.668    88.486     0.120     0.000 .00000E+00 0.000E+00 0.000E+00 0.000E+00 0.000E+00 0.000E+00
BIGSUB   8        0    2.51507E-01   144.700     0.000   106.767    68.082    48.002     7.978    42.461     9.072   135.875     4.571     6.374     0.779     0.000     0.002     0.623    83.795     0.115     0.002 .00000E+00 0.000E+00 0.000E+00 0.000E+00 0.000E+00 0.000E+00
BIGSUB   9        0    2.22296E+00   144.700     0.000   106.724    68.575    50.575     7.081    42.292    10.571   138.178     5.121     6.556     0.801     0.000     0.002     0.643    84.871     0.117     0.002 .00000E+00 0.000E+00 0.000E+00 0.000E+00 0.000E+00 0.000E+00
BIGSUB  10        0    2.69770E-01   144.700     0.000   106.651    68.040    77.234    22.789    44.660    42.814   155.118     4.317     5.308     0.649     0.000     0.003     0.524    65.895     0.089     0.013 .00000E+00 0.000E+00 0.000E+00 0.000E+00 0.000E+00 0.000E+00
BIGSUB  11        0    2.12671E+00   144.700     0.000   106.701    69.737    73.545    17.796    39.790    33.384   149.523     5.839     6.516     0.796     0.000     0.001     0.640    74.975     0.096     0.011 .00000E+00 0.000E+00 0.000E+00 0.000E+00 0.000E+00 0.000E+00
BIGSUB   1        0    3.35860E+00    93.800     0.000   115.487    84.953    33.463     0.000     0.000    11.520    45.325     0.000     0.000     0.000     0.000     0.000     0.000    33.006     0.000     0.001 .00000E+00 0.000E+00 0.000E+00 0.000E+00 0.000E+00 0.000E+00
BIGSUB   2        0    3.32997E+00    93.800     0.000   115.498    86.316    48.292     0.000     0.685    12.350    43.401     0.035     0.031     0.004     0.026     0.000     0.003    29.562     0.437     0.002 .00000E+00 0.000E+00 0.000E+00 0.000E+00 0.000E+00 0.000E+00
BIGSUB   3        0    3.49752E+00    93.800     0.000   115.515    86.093    53.821     0.000     1.618    35.841    63.625     0.074     0.078     0.010     0.018     0.000     0.007    24.110     0.322     0.009 .00000E+00 0.000E+00 0.000E+00 0.000E+00 0.000E+00 0.000E+00
BIGSUB   4        0    3.34608E+00    93.800     0.000   115.424    85.032    20.237     0.000     0.000     5.776    42.254     0.000     0.000     0.000     0.000     0.000     0.000    36.074     0.001     0.000 .00000E+00 0.000E+00 0.000E+00 0.000E+00 0.000E+00 0.000E+00
BIGSUB   5        0    3.24789E+00    93.800     0.000   115.296    83.976    20.793     0.000     0.009     1.628    39.791     0.000     0.000     0.000     0.000     0.000     0.000    37.820     0.000     0.000 .00000E+00 0.000E+00 0.000E+00 0.000E+00 0.000E+00 0.000E+00
BIGSUB   6        0    3.21516E+00    93.800     0.000   115.352    84.509    28.152     0.000     0.028     4.735    41.391     0.000     0.000     0.000     0.000     0.000     0.000    36.240     0.065     0.000 .00000E+00 0.000E+00 0.000E+00 0.000E+00 0.000E+00 0.000E+00
BIGSUB   7        0    3.52122E-01    93.800     0.000   115.345    83.402    18.546     0.000     0.000     0.829    40.517     0.000     0.000     0.000     0.000     0.000     0.000    39.473     0.000     0.000 .00000E+00 0.000E+00 0.000E+00 0.000E+00 0.000E+00 0.000E+00
BIGSUB   8        0    3.51507E-01    93.800     0.000   115.339    83.616    21.478     0.000     0.004     6.956    44.256     0.000     0.000     0.000     0.000     0.000     0.000    36.691     0.000     0.001 .00000E+00 0.000E+00 0.000E+00 0.000E+00 0.000E+00 0.000E+00
BIGSUB   9        0    3.22296E+00    93.800     0.000   115.286    84.323    23.510     0.000     0.012     7.655    44.675     0.000     0.000     0.000     0.000     0.000     0.000    36.510     0.000     0.001 .00000E+00 0.000E+00 0.000E+00 0.000E+00 0.000E+00 0.000E+00
BIGSUB  10        0    3.69770E-01    93.800     0.000   115.197    84.420    58.253     0.000     0.641    33.156    63.354     0.000     0.000     0.000     0.000     0.000     0.000    27.653     0.000     0.005 .00000E+00 0.000E+00 0.000E+00 0.000E+00 0.000E+00 0.000E+00
BIGSUB  11        0    3.12671E+00    93.800     0.000   115.258    84.956    52.084     0.000     0.109    25.076    56.823     0.001     0.001     0.000     0.001     0.000     0.000    30.146     0.006     0.004 .00000E+00 0.000E+00 0.000E+00 0.000E+00 0.000E+00 0.000E+00
BIGSUB   1        0    4.35860E+00   238.900     0.000   112.404    63.985    68.298     0.732    29.231     2.430   130.176     0.016     0.035     0.004     0.001     0.001     0.003    97.869     0.030     0.000 .00000E+00 0.000E+00 0.000E+00 0.000E+00 0.000E+00 0.000E+00
BIGSUB   2        0    4.32997E+00   238.900     0.000   112.406    72.629    75.879     0.735    38.324     2.783   132.533     0.679     0.713     0.089     0.001     0.002     0.058    90.775     0.153     0.000 .00000E+00 0.000E+00 0.000E+00 0.000E+00 0.000E+00 0.000E+00
BIGSUB   3        0    4.49752E+00   238.900     0.000   112.409    73.930    87.453     4.850    47.251     9.852   128.886     1.038     1.148     0.143     0.002     0.002     0.096    70.127     0.024     0.001 .00000E+00 0.000E+00 0.000E+00 0.000E+00 0.000E+00 0.000E+00
BIGSUB   4        0    4.34608E+00   238.900     0.000   112.391    59.900    52.510     0.000    31.471     0.033   132.627     0.016     0.030     0.004     0.001     0.001     0.003   100.791     0.029     0.000 .00000E+00 0.000E+00 0.000E+00 0.000E+00 0.000E+00 0.000E+00
BIGSUB   5        0    4.24789E+00   238.900     0.000   112.366    58.304    50.581     0.248    30.545     0.516   136.448     0.017     0.027     0.003     0.001     0.001     0.003   105.111     0.028     0.000 .00000E+00 0.000E+00 0.000E+00 0.000E+00 0.000E+00 0.000E+00
BIGSUB   6        0    4.21516E+00   238.900     0.000   112.377    62.432    56.368     0.340    30.066     0.730   136.002     0.016     0.035     0.004     0.001     0.001     0.003   104.888     0.033     0.000 .00000E+00 0.000E+00 0.000E+00 0.000E+00 0.000E+00 0.000E+00
BIGSUB   7        0    4.52122E-01   238.900     0.000   112.376    56.632    46.709     0.336    28.860     0.292   138.943     0.014     0.025     0.003     0.001     0.001     0.002   109.614     0.027     0.000 .00000E+00 0.000E+00 0.000E+00 0.000E+00 0.000E+00 0.000E+00
BIGSUB   8        0    4.51507E-01   238.900     0.000   112.374    58.684    50.531     2.809    31.557     2.435   136.450     0.013     0.025     0.003     0.001     0.002     0.002   101.967     0.027     0.000 .00000E+00 0.000E+00 0.000E+00 0.000E+00 0.000E+00 0.000E+00
BIGSUB   9        0    4.22296E+00   238.900     0.000   112.364    59.500    54.323     0.623    31.905     1.263   135.091     0.017     0.029     0.004     0.001     0.001     0.003   101.516     0.028     0.000 .00000E+00 0.000E+00 0.000E+00 0.000E+00 0.000E+00 0.000E+00
BIGSUB  10        0    4.69770E-01   238.900     0.000   112.346    67.765    91.064     3.178    48.177    11.084   136.293     0.026     0.042     0.005     0.001     0.003     0.004    75.495     0.019     0.001 .00000E+00 0.000E+00 0.000E+00 0.000E+00 0.000E+00 0.000E+00
BIGSUB  11        0    4.12671E+00   238.900     0.000   112.359    67.414    83.412     3.076    37.668     7.270   134.460     0.045     0.077     0.010     0.001     0.001     0.007    88.318     0.030     0.001 .00000E+00 0.000E+00 0.000E+00 0.000E+00 0.000E+00 0.000E+00
BIGSUB   1        0    5.35860E+00   134.700     0.000   133.573    77.444    65.288     2.116     1.783     1.480    71.822     0.001     0.002     0.000     0.000     0.000     0.000    68.027     0.049     0.000 .00000E+00 0.000E+00 0.000E+00 0.000E+00 0.000E+00 0.000E+00
BIGSUB   2        0    5.32997E+00   134.700     0.000   133.569    83.540    73.029     1.157     2.933     1.089    62.893     0.065     0.056     0.007     0.000     0.000     0.004    58.338     0.043     0.000 .00000E+00 0.000E+00 0.000E+00 0.000E+00 0.000E+00 0.000E+00
BIGSUB   3        0    5.49752E+00   134.700     0.000   133.563    86.354    85.145     4.576     5.014     5.776    61.901     0.127     0.128     0.016     0.001     0.000     0.011    49.738     0.033     0.000 .00000E+00 0.000E+00 0.000E+00 0.000E+00 0.000E+00 0.000E+00
BIGSUB   4        0    5.34608E+00   134.700     0.000   133.596    74.889    51.748     0.000     2.251     0.000    74.599     0.001     0.002     0.000     0.000     0.000     0.000    72.079     0.052     0.000 .00000E+00 0.000E+00 0.000E+00 0.000E+00 0.000E+00 0.000E+00
BIGSUB   5        0    5.24789E+00   134.700     0.000   133.643    74.021    48.111     0.379     1.895     0.329    77.502     0.001     0.002     0.000     0.000     0.000     0.000    75.051     0.053     0.000 .00000E+00 0.000E+00 0.000E+00 0.000E+00 0.000E+00 0.000E+00
BIGSUB   6        0    5.21516E+00   134.700     0.000   133.622    77.006    52.910     0.445     1.819     0.423    73.720     0.001     0.002     0.000     0.000     0.000     0.000    71.217     0.051     0.000 .00000E+00 0.000E+00 0.000E+00 0.000E+00 0.000E+00 0.000E+00
BIGSUB   7        0    5.52122E-01   134.700     0.000   133.625    73.129    43.165     0.238     1.610     0.264    79.838     0.001     0.001     0.000     0.000     0.000     0.000    77.816     0.053     0.000 .00000E+00 0.000E+00 0.000E+00 0.000E+00 0.000E+00 0.000E+00
BIGSUB   8        0    5.51507E-01   134.700     0.000   133.627    74.290    47.865     1.990     2.509     2.211    77.840     0.001     0.002     0.000     0.000     0.000     0.000    72.702     0.051     0.000 .00000E+00 0.000E+00 0.000E+00 0.000E+00 0.000E+00 0.000E+00
BIGSUB   9        0    5.22296E+00   134.700     0.000   133.647    74.701    52.345     0.950     2.169     0.817    76.012     0.001     0.002     0.000     0.000     0.000     0.000    72.690     0.052     0.000 .00000E+00 0.000E+00 0.000E+00 0.000E+00 0.000E+00 0.000E+00
BIGSUB  10        0    5.69770E-01   134.700     0.000   133.679    82.586    87.921     5.719     4.850     5.268    66.965     0.003     0.005     0.001     0.000     0.000     0.000    55.575     0.038     0.000 .00000E+00 0.000E+00 0.000E+00 0.000E+00 0.000E+00 0.000E+00
BIGSUB  11        0    5.12671E+00   134.700     0.000   133.657    79.053    80.509     5.416     2.992     4.559    69.225     0.006     0.008     0.001     0.000     0.000     0.001    60.671     0.043     0.000 .00000E+00 0.000E+00 0.000E+00 0.000E+00 0.000E+00 0.000E+00
BIGSUB   1        0    6.35860E+00   299.100     0.000    88.422    62.413    78.419     7.755    99.253     3.092   219.400     0.171     0.385     0.047     0.003     0.005     0.035   116.626     0.185     0.000 .00000E+00 0.000E+00 0.000E+00 0.000E+00 0.000E+00 0.000E+00
BIGSUB   2        0    6.32997E+00   299.100     0.000    88.410    58.868    92.345     5.432   104.337     1.761   217.698     1.355     1.431     0.180     0.005     0.006     0.112   111.187     0.198     0.000 .00000E+00 0.000E+00 0.000E+00 0.000E+00 0.000E+00 0.000E+00
BIGSUB   3        0    6.49752E+00   299.100     0.000    88.392    58.137    96.764    25.848   114.911     9.236   213.898     1.923     1.987     0.251     0.006     0.007     0.158    88.628     0.147     0.000 .00000E+00 0.000E+00 0.000E+00 0.000E+00 0.000E+00 0.000E+00
BIGSUB   4        0    6.34608E+00   299.100     0.000    88.492    61.289    70.859     0.000   106.283     0.000   219.030     0.167     0.307     0.038     0.003     0.004     0.029   112.549     0.168     0.000 .00000E+00 0.000E+00 0.000E+00 0.000E+00 0.000E+00 0.000E+00
BIGSUB   5        0    6.24789E+00   299.100     0.000    88.632    60.640    64.210     1.023   100.891     0.492   222.104     0.166     0.272     0.034     0.004     0.004     0.025   120.548     0.179     0.000 .00000E+00 0.000E+00 0.000E+00 0.000E+00 0.000E+00 0.000E+00
BIGSUB   6        0    6.21516E+00   299.100     0.000    88.570    60.811    70.318     1.260    98.355     0.589   220.493     0.160     0.312     0.039     0.003     0.005     0.029   121.349     0.194     0.000 .00000E+00 0.000E+00 0.000E+00 0.000E+00 0.000E+00 0.000E+00
BIGSUB   7        0    6.52122E-01   299.100     0.000    88.579    60.064    57.500     0.540    96.771     0.337   224.698     0.143     0.244     0.030     0.004     0.004     0.023   127.477     0.189     0.000 .00000E+00 0.000E+00 0.000E+00 0.000E+00 0.000E+00 0.000E+00
BIGSUB   8        0    6.51507E-01   299.100     0.000    88.586    60.707    63.071     4.524   101.477     2.821   221.925     0.130     0.247     0.030     0.003     0.006     0.023   117.284     0.175     0.000 .00000E+00 0.000E+00 0.000E+00 0.000E+00 0.000E+00 0.000E+00
BIGSUB   9        0    6.22296E+00   299.100     0.000    88.644    61.071    68.979     2.510   103.296     1.223   220.472     0.167     0.283     0.035     0.003     0.004     0.027   115.691     0.172     0.000 .00000E+00 0.000E+00 0.000E+00 0.000E+00 0.000E+00 0.000E+00
BIGSUB  10        0    6.69770E-01   299.100     0.000    88.741    63.912   100.138    19.405   114.436     7.910   212.486     0.197     0.290     0.036     0.003     0.006     0.028    89.109     0.131     0.000 .00000E+00 0.000E+00 0.000E+00 0.000E+00 0.000E+00 0.000E+00
BIGSUB  11        0    6.12671E+00   299.100     0.000    88.674    63.168    93.326    15.337   103.320     7.066   215.656     0.302     0.430     0.053     0.003     0.004     0.040   104.448     0.166     0.000 .00000E+00 0.000E+00 0.000E+00 0.000E+00 0.000E+00 0.000E+00
BIGSUB   1        0    7.35860E+00   248.800     0.000   102.840    75.671    88.513    10.135    13.853     4.993   158.482     0.037     0.079     0.010     0.001     0.001     0.007   139.234     0.202     0.000 .00000E+00 0.000E+00 0.000E+00 0.000E+00 0.000E+00 0.000E+00
BIGSUB   2        0    7.32997E+00   248.800     0.000   102.821    75.144    99.706    11.943    18.608     3.812   158.687     0.302     0.649     0.106     0.045     0.006     0.027   135.888     0.365     0.000 .00000E+00 0.000E+00 0.000E+00 0.000E+00 0.000E+00 0.000E+00
BIGSUB   3        0    7.49752E+00   248.800     0.000   102.790    75.326   103.016    34.953    24.924    16.947   150.483     0.460     0.727     0.128     0.048     0.007     0.038   107.500     0.278     0.001 .00000E+00 0.000E+00 0.000E+00 0.000E+00 0.000E+00 0.000E+00
BIGSUB   4        0    7.34608E+00   248.800     0.000   102.955    75.586    87.890     0.000    23.002     0.000   156.549     0.058     0.125     0.015     0.002     0.001     0.012   133.394     0.173     0.000 .00000E+00 0.000E+00 0.000E+00 0.000E+00 0.000E+00 0.000E+00
BIGSUB   5        0    7.24789E+00   248.800     0.000   103.186    73.977    77.980     1.627    17.263     0.761   160.549     0.044     0.085     0.010     0.001     0.001     0.008   142.381     0.187     0.000 .00000E+00 0.000E+00 0.000E+00 0.000E+00 0.000E+00 0.000E+00
BIGSUB   6        0    7.21516E+00   248.800     0.000   103.085    75.086    83.932     2.185    16.495     0.950   159.225     0.038     0.080     0.010     0.004     0.001     0.007   141.612     0.206     0.000 .00000E+00 0.000E+00 0.000E+00 0.000E+00 0.000E+00 0.000E+00
BIGSUB   7        0    7.52122E-01   248.800     0.000   103.099    72.950    69.174     0.830    13.652     0.440   164.121     0.031     0.061     0.008     0.001     0.001     0.006   149.935     0.198     0.000 .00000E+00 0.000E+00 0.000E+00 0.000E+00 0.000E+00 0.000E+00
BIGSUB   8        0    7.51507E-01   248.800     0.000   103.110    73.919    75.810     6.958    16.996     3.690   159.404     0.033     0.073     0.009     0.001     0.001     0.007   138.402     0.182     0.001 .00000E+00 0.000E+00 0.000E+00 0.000E+00 0.000E+00 0.000E+00
BIGSUB   9        0    7.22296E+00   248.800     0.000   103.206    74.617    83.127     4.089    19.105     1.870   158.240     0.049     0.097     0.012     0.001     0.001     0.009   137.036     0.180     0.000 .00000E+00 0.000E+00 0.000E+00 0.000E+00 0.000E+00 0.000E+00
BIGSUB  10        0    7.69770E-01   248.800     0.000   103.365    76.106   108.240    33.543    24.160    14.211   146.227     0.061     0.101     0.013     0.002     0.002     0.010   106.859     0.144     0.001 .00000E+00 0.000E+00 0.000E+00 0.000E+00 0.000E+00 0.000E+00
BIGSUB  11        0    7.12671E+00   248.800     0.000   103.255    76.239   102.766    24.188    16.268    11.188   150.903     0.084     0.123     0.016     0.004     0.001     0.011   122.656     0.184     0.001 .00000E+00 0.000E+00 0.000E+00 0.000E+00 0.000E+00 0.000E+00
BIGSUB   1        0    8.35860E+00   467.800     0.000   112.463    73.609    98.847    21.010   154.726     8.896   372.000     1.064     2.485     0.305     0.005     0.006     0.232   207.947     0.228     0.001 .00000E+00 0.000E+00 0.000E+00 0.000E+00 0.000E+00 0.000E+00
BIGSUB   2        0    8.32997E+00   467.800     0.000   112.446    75.496   108.663    21.137   157.311     8.855   371.360     2.177     4.008     0.584     0.079     0.034     0.295   204.772     0.474     0.001 .00000E+00 0.000E+00 0.000E+00 0.000E+00 0.000E+00 0.000E+00
BIGSUB   3        0    8.49752E+00   467.800     0.000   112.418    76.287   109.280    56.207   173.943    29.101   359.270     2.774     4.264     0.660     0.085     0.041     0.331   154.972     0.323     0.004 .00000E+00 0.000E+00 0.000E+00 0.000E+00 0.000E+00 0.000E+00
BIGSUB   4        0    8.34608E+00   467.800     0.000   112.569    72.865    88.324    12.308   180.586     0.000   382.133     1.146     2.439     0.300     0.006     0.007     0.231   201.411     0.248     0.000 .00000E+00 0.000E+00 0.000E+00 0.000E+00 0.000E+00 0.000E+00
BIGSUB   5        0    8.24789E+00   467.800     0.000   112.779    72.065    89.424     6.503   172.543     1.324   379.035     1.133     2.156     0.265     0.006     0.006     0.205   205.037     0.214     0.000 .00000E+00 0.000E+00 0.000E+00 0.000E+00 0.000E+00 0.000E+00
BIGSUB   6        0    8.21516E+00   467.800     0.000   112.687    73.969    95.278     7.643   165.228     1.732   376.549     1.043     2.232     0.274     0.007     0.008     0.210   209.434     0.234     0.000 .00000E+00 0.000E+00 0.000E+00 0.000E+00 0.000E+00 0.000E+00
BIGSUB   7        0    8.52122E-01   467.800     0.000   112.700    71.137    88.021     1.285   160.378     0.700   377.088     0.951     1.889     0.232     0.006     0.006     0.179   215.931     0.198     0.000 .00000E+00 0.000E+00 0.000E+00 0.000E+00 0.000E+00 0.000E+00
BIGSUB   8        0    8.51507E-01   467.800     0.000   112.709    71.884    88.255    13.592   170.612     5.867   375.864     0.889     1.949     0.239     0.006     0.008     0.184   199.062     0.203     0.002 .00000E+00 0.000E+00 0.000E+00 0.000E+00 0.000E+00 0.000E+00
BIGSUB   9        0    8.22296E+00   467.800     0.000   112.797    72.607    91.270    12.024   176.139     3.298   378.348     1.126     2.233     0.274     0.006     0.006     0.212   198.685     0.218     0.001 .00000E+00 0.000E+00 0.000E+00 0.000E+00 0.000E+00 0.000E+00
BIGSUB  10        0    8.69770E-01   467.800     0.000   112.943    74.245   117.199    50.719   180.269    26.420   361.309     1.117     1.955     0.241     0.007     0.009     0.190   153.487     0.158     0.005 .00000E+00 0.000E+00 0.000E+00 0.000E+00 0.000E+00 0.000E+00
BIGSUB  11        0    8.12671E+00   467.800     0.000   112.842    74.439   114.308    39.398   157.191    19.707   362.861     1.525     2.407     0.298     0.010     0.007     0.226   185.081     0.200     0.005 .00000E+00 0.000E+00 0.000E+00 0.000E+00 0.000E+00 0.000E+00
BIGSUB   1        0    9.35860E+00   166.700     0.000   150.220    84.217    89.907     4.236    17.068    11.338    99.241     0.285     0.480     0.059     0.002     0.001     0.045    70.340     0.053     0.001 .00000E+00 0.000E+00 0.000E+00 0.000E+00 0.000E+00 0.000E+00
BIGSUB   2        0    9.32997E+00   166.700     0.000   150.201    88.678    98.311     4.011    18.965    12.189    97.210     0.555     0.643     0.091     0.023     0.004     0.057    65.565     0.113     0.001 .00000E+00 0.000E+00 0.000E+00 0.000E+00 0.000E+00 0.000E+00
BIGSUB   3        0    9.49752E+00   166.700     0.000   150.171    90.285    99.265    12.031    22.380    34.604   110.591     0.739     0.703     0.106     0.027     0.005     0.064    52.184     0.084     0.006 .00000E+00 0.000E+00 0.000E+00 0.000E+00 0.000E+00 0.000E+00
BIGSUB   4        0    9.34608E+00   166.700     0.000   150.332    82.197    79.716     1.470    20.020     0.000    92.072     0.304     0.531     0.065     0.002     0.001     0.050    71.870     0.056     0.000 .00000E+00 0.000E+00 0.000E+00 0.000E+00 0.000E+00 0.000E+00
BIGSUB   5        0    9.24789E+00   166.700     0.000   150.557    81.430    80.099     1.256    19.996     1.576    95.344     0.321     0.498     0.061     0.002     0.001     0.047    73.626     0.051     0.000 .00000E+00 0.000E+00 0.000E+00 0.000E+00 0.000E+00 0.000E+00
BIGSUB   6        0    9.21516E+00   166.700     0.000   150.459    84.361    85.104     1.466    18.548     2.124    93.591     0.278     0.471     0.058     0.002     0.001     0.045    72.746     0.053     0.000 .00000E+00 0.000E+00 0.000E+00 0.000E+00 0.000E+00 0.000E+00
BIGSUB   7        0    9.52122E-01   166.700     0.000   150.472    80.592    78.325     0.530    19.896     0.825    96.452     0.292     0.475     0.058     0.002     0.001     0.045    75.661     0.047     0.000 .00000E+00 0.000E+00 0.000E+00 0.000E+00 0.000E+00 0.000E+00
BIGSUB   8        0    9.51507E-01   166.700     0.000   150.483    81.438    79.033     3.582    19.981     6.920    98.448     0.256     0.459     0.056     0.002     0.001     0.043    71.192     0.048     0.002 .00000E+00 0.000E+00 0.000E+00 0.000E+00 0.000E+00 0.000E+00
BIGSUB   9        0    9.22296E+00   166.700     0.000   150.576    82.039    82.192     2.377    20.028     4.006    95.922     0.310     0.501     0.062     0.002     0.001     0.048    71.626     0.052     0.001 .00000E+00 0.000E+00 0.000E+00 0.000E+00 0.000E+00 0.000E+00
BIGSUB  10        0    9.69770E-01   166.700     0.000   150.732    85.935   108.351    12.705    22.514    31.541   110.233     0.314     0.453     0.056     0.002     0.001     0.044    54.886     0.039     0.006 .00000E+00 0.000E+00 0.000E+00 0.000E+00 0.000E+00 0.000E+00
BIGSUB  11        0    9.12671E+00   166.700     0.000   150.624    85.942   105.127     9.593    18.486    24.271   106.090     0.414     0.488     0.060     0.003     0.001     0.046    62.334     0.045     0.006 .00000E+00 0.000E+00 0.000E+00 0.000E+00 0.000E+00 0.000E+00
BIGSUB   1        0   10.35860E+00   234.500     0.000   163.422    77.997    98.103     5.659    49.231     8.219   146.331     1.395     2.196     0.269     0.006     0.002     0.207    88.390     0.121     0.001 .00000E+00 0.000E+00 0.000E+00 0.000E+00 0.000E+00 0.000E+00
BIGSUB   2        0   10.32997E+00   234.500     0.000   163.405    80.629   109.689     3.703    52.685     7.347   142.893     1.713     2.127     0.278     0.036     0.008     0.214    82.378     0.206     0.001 .00000E+00 0.000E+00 0.000E+00 0.000E+00 0.000E+00 0.000E+00
BIGSUB   3        0   10.49752E+00   234.500     0.000   163.379    81.358   110.683    14.800    58.894    24.197   148.708     1.930     2.118     0.288     0.040     0.010     0.219    64.221     0.148     0.003 .00000E+00 0.000E+00 0.000E+00 0.000E+00 0.000E+00 0.000E+00
BIGSUB   4        0   10.34608E+00   234.500     0.000   163.522    75.984    88.958     0.000    56.883     0.000   143.570     1.451     2.302     0.282     0.006     0.002     0.219    86.502     0.108     0.000 .00000E+00 0.000E+00 0.000E+00 0.000E+00 0.000E+00 0.000E+00
BIGSUB   5        0   10.24789E+00   234.500     0.000   163.722    75.068    87.478     0.731    55.783     1.151   146.540     1.538     2.141     0.263     0.006     0.002     0.204    89.462     0.102     0.000 .00000E+00 0.000E+00 0.000E+00 0.000E+00 0.000E+00 0.000E+00
BIGSUB   6        0   10.21516E+00   234.500     0.000   163.634    77.125    93.528     0.923    51.880     1.504   144.395     1.364     2.098     0.257     0.006     0.002     0.199    90.841     0.117     0.000 .00000E+00 0.000E+00 0.000E+00 0.000E+00 0.000E+00 0.000E+00
BIGSUB   7        0   10.52122E-01   234.500     0.000   163.647    74.112    84.479     0.479    54.920     0.623   148.159     1.395     2.062     0.253     0.007     0.002     0.196    92.553     0.098     0.000 .00000E+00 0.000E+00 0.000E+00 0.000E+00 0.000E+00 0.000E+00
BIGSUB   8        0   10.51507E-01   234.500     0.000   163.656    75.083    86.180     4.015    55.643     5.225   147.838     1.227     2.023     0.248     0.006     0.002     0.192    86.619     0.098     0.001 .00000E+00 0.000E+00 0.000E+00 0.000E+00 0.000E+00 0.000E+00
BIGSUB   9        0   10.22296E+00   234.500     0.000   163.739    75.752    90.202     1.816    56.246     2.866   146.128     1.477     2.168     0.266     0.006     0.002     0.207    86.756     0.102     0.000 .00000E+00 0.000E+00 0.000E+00 0.000E+00 0.000E+00 0.000E+00
BIGSUB  10        0   10.69770E-01   234.500     0.000   163.878    80.115   117.185    13.223    61.795    22.799   151.655     1.452     1.970     0.243     0.007     0.003     0.193    65.781     0.077     0.003 .00000E+00 0.000E+00 0.000E+00 0.000E+00 0.000E+00 0.000E+00
BIGSUB  11        0   10.12671E+00   234.500     0.000   163.782    79.960   113.876    10.717    52.965    17.295   148.748     1.893     2.067     0.254     0.008     0.002     0.198    77.500     0.101     0.002 .00000E+00 0.000E+00 0.000E+00 0.000E+00 0.000E+00 0.000E+00
BIGSUB   1        0   11.35860E+00   180.900     0.000   149.850    79.452    96.802     3.927    25.047     4.484   104.296     1.305     1.701     0.208     0.002     0.001     0.160    74.339     0.107     0.000 .00000E+00 0.000E+00 0.000E+00 0.000E+00 0.000E+00 0.000E+00
BIGSUB   2        0   11.32997E+00   180.900     0.000   149.837    77.871   108.545     4.755    28.205     3.384   103.625     1.398     1.552     0.198     0.014     0.004     0.161    71.627     0.198     0.000 .00000E+00 0.000E+00 0.000E+00 0.000E+00 0.000E+00 0.000E+00
BIGSUB   3        0   11.49752E+00   180.900     0.000   149.818    77.773   109.765    15.180    32.633    16.168   106.610     1.499     1.499     0.197     0.015     0.005     0.161    56.604     0.142     0.001 .00000E+00 0.000E+00 0.000E+00 0.000E+00 0.000E+00 0.000E+00
BIGSUB   4        0   11.34608E+00   180.900     0.000   149.924    77.485    88.776     0.000    30.618     0.000   104.508     1.380     1.870     0.229     0.002     0.001     0.178    73.742     0.095     0.000 .00000E+00 0.000E+00 0.000E+00 0.000E+00 0.000E+00 0.000E+00
BIGSUB   5        0   11.24789E+00   180.900     0.000   150.072    76.249    86.027     0.553    28.959     0.784   107.156     1.450     1.697     0.208     0.003     0.001     0.162    77.295     0.092     0.000 .00000E+00 0.000E+00 0.000E+00 0.000E+00 0.000E+00 0.000E+00
BIGSUB   6        0   11.21516E+00   180.900     0.000   150.007    76.783    92.730     0.758    27.151     0.992   105.902     1.277     1.680     0.206     0.003     0.001     0.160    77.618     0.112     0.000 .00000E+00 0.000E+00 0.000E+00 0.000E+00 0.000E+00 0.000E+00
BIGSUB   7        0   11.52122E-01   180.900     0.000   150.016    74.763    82.376     0.349    27.809     0.457   109.113     1.302     1.631     0.200     0.003     0.001     0.156    80.796     0.090     0.000 .00000E+00 0.000E+00 0.000E+00 0.000E+00 0.000E+00 0.000E+00
BIGSUB   8        0   11.51507E-01   180.900     0.000   150.023    76.276    84.632     2.922    28.963     3.832   108.089     1.156     1.638     0.201     0.003     0.001     0.156    74.990     0.089     0.001 .00000E+00 0.000E+00 0.000E+00 0.000E+00 0.000E+00 0.000E+00
BIGSUB   9        0   11.22296E+00   180.900     0.000   150.084    77.044    89.137     1.370    29.573     1.919   106.383     1.393     1.740     0.213     0.003     0.001     0.166    74.673     0.092     0.000 .00000E+00 0.000E+00 0.000E+00 0.000E+00 0.000E+00 0.000E+00
BIGSUB  10        0   11.69770E-01   180.900     0.000   150.187    81.607   116.034    10.207    33.456    14.971   106.645     1.359     1.668     0.206     0.003     0.001     0.165    57.115     0.070     0.001 .00000E+00 0.000E+00 0.000E+00 0.000E+00 0.000E+00 0.000E+00
BIGSUB  11        0   11.12671E+00   180.900     0.000   150.116    81.090   112.758     8.032    27.464    11.457   105.577     1.716     1.571     0.193     0.003     0.001     0.151    65.804     0.091     0.001 .00000E+00 0.000E+00 0.000E+00 0.000E+00 0.000E+00 0.000E+00
BIGSUB   1        0   12.35860E+00   309.800     0.000   145.801    99.545   101.557    11.346    46.894     5.593   198.890     4.469     4.781     0.586     0.002     0.001     0.452   145.992     0.229     0.001 .00000E+00 0.000E+00 0.000E+00 0.000E+00 0.000E+00 0.000E+00
BIGSUB   2        0   12.32997E+00   309.800     0.000   145.796   100.640   111.842    12.517    50.647     5.767   198.569     4.321     4.191     0.528     0.014     0.005     0.434   141.753     0.445     0.001 .00000E+00 0.000E+00 0.000E+00 0.000E+00 0.000E+00 0.000E+00
BIGSUB   3        0   12.49752E+00   309.800     0.000   145.788   101.796   112.966    35.019    58.648    19.716   189.704     4.363     3.951     0.509     0.016     0.007     0.423   110.143     0.310     0.004 .00000E+00 0.000E+00 0.000E+00 0.000E+00 0.000E+00 0.000E+00
BIGSUB   4        0   12.34608E+00   309.800     0.000   145.829    97.681    91.349     4.894    56.851     0.000   203.133     4.556     5.179     0.634     0.002     0.002     0.494   146.149     0.243     0.000 .00000E+00 0.000E+00 0.000E+00 0.000E+00 0.000E+00 0.000E+00
BIGSUB   5        0   12.24789E+00   309.800     0.000   145.886    96.553    91.559     2.903    54.494     0.902   204.304     4.957     4.812     0.590     0.002     0.001     0.461   148.800     0.215     0.000 .00000E+00 0.000E+00 0.000E+00 0.000E+00 0.000E+00 0.000E+00
BIGSUB   6        0   12.21516E+00   309.800     0.000   145.861    97.804    98.254     3.756    51.270     1.190   202.720     4.406     4.859     0.596     0.004     0.002     0.464   150.130     0.257     0.000 .00000E+00 0.000E+00 0.000E+00 0.000E+00 0.000E+00 0.000E+00
BIGSUB   7        0   12.52122E-01   309.800     0.000   145.865    95.289    88.721     0.847    51.957     0.520   206.349     4.500     4.669     0.572     0.003     0.001     0.446   153.827     0.208     0.000 .00000E+00 0.000E+00 0.000E+00 0.000E+00 0.000E+00 0.000E+00
BIGSUB   8        0   12.51507E-01   309.800     0.000   145.868    96.685    90.308     7.956    54.072     4.355   202.558     3.982     4.713     0.577     0.002     0.002     0.449   143.837     0.204     0.001 .00000E+00 0.000E+00 0.000E+00 0.000E+00 0.000E+00 0.000E+00
BIGSUB   9        0   12.22296E+00   309.800     0.000   145.891    97.249    93.732     6.148    55.470     2.234   202.718     4.698     4.910     0.602     0.002     0.001     0.470   144.808     0.219     0.001 .00000E+00 0.000E+00 0.000E+00 0.000E+00 0.000E+00 0.000E+00
BIGSUB  10        0   12.69770E-01   309.800     0.000   145.931   100.961   120.247    32.579    60.401    17.322   189.322     4.368     4.783     0.590     0.003     0.002     0.474   110.527     0.161     0.004 .00000E+00 0.000E+00 0.000E+00 0.000E+00 0.000E+00 0.000E+00
BIGSUB  11        0   12.12671E+00   309.800     0.000   145.903   100.528   116.662    25.147    49.784    13.240   193.180     5.390     4.297     0.527     0.003     0.001     0.413   129.324     0.206     0.003 .00000E+00 0.000E+00 0.000E+00 0.000E+00 0.000E+00 0.000E+00
BIGSUB   1        0 2013.35860E+00  3096.300     0.000  1498.763   938.152   101.557   112.424   618.119    90.172  2132.629    24.195    43.495     5.318     0.026     0.027     4.181  1417.894     1.743     0.011 .00000E+00 0.000E+00 0.000E+00 0.000E+00 0.000E+00 0.000E+00
BIGSUB   2        0 2013.32997E+00  3096.300     0.000  1498.683   957.827   111.842   111.211   666.210    92.016  2119.180    27.472    45.809     5.800     0.434     0.087     4.244  1354.580     3.333     0.013 .00000E+00 0.000E+00 0.000E+00 0.000E+00 0.000E+00 0.000E+00
BIGSUB   3        0 2013.49752E+00  3096.300     0.000  1498.556   963.737   112.966   314.780   749.943   289.933  2118.036    28.314    44.726     5.773     3.712     0.106     4.143  1060.697     2.706     0.066 .00000E+00 0.000E+00 0.000E+00 0.000E+00 0.000E+00 0.000E+00
BIGSUB   4        0 2013.34608E+00  3096.300     0.000  1499.241   919.602    91.349    44.347   714.132    20.586  2144.744    23.147    42.930     5.250     0.028     0.029     4.165  1407.235     1.729     0.002 .00000E+00 0.000E+00 0.000E+00 0.000E+00 0.000E+00 0.000E+00
BIGSUB   5        0 2013.24789E+00  3096.300     0.000  1500.197   908.633    91.559    36.826   687.928    13.460  2155.953    26.430    43.503     5.320     0.030     0.026     4.234  1452.231     1.668     0.003 .00000E+00 0.000E+00 0.000E+00 0.000E+00 0.000E+00 0.000E+00
BIGSUB   6        0 2013.21516E+00  3096.300     0.000  1499.777   927.133    98.254    43.398   655.251    22.550  2141.073    23.531    41.979     5.136     0.040     0.034     4.061  1460.542     1.915     0.004 .00000E+00 0.000E+00 0.000E+00 0.000E+00 0.000E+00 0.000E+00
BIGSUB   7        0 2013.52122E-01  3096.300     0.000  1499.836   898.023    88.721    20.299   660.355     7.360  2176.934    24.945    43.050     5.264     0.031     0.027     4.186  1507.844     1.647     0.002 .00000E+00 0.000E+00 0.000E+00 0.000E+00 0.000E+00 0.000E+00
BIGSUB   8        0 2013.51507E-01  3096.300     0.000  1499.881   908.493    90.308    83.524   687.157    61.692  2160.401    21.380    40.644     4.970     0.030     0.036     3.940  1406.717     1.602     0.014 .00000E+00 0.000E+00 0.000E+00 0.000E+00 0.000E+00 0.000E+00
BIGSUB   9        0 2013.22296E+00  3096.301     0.000  1500.278   915.586    93.732    62.216   699.809    42.843  2154.466    24.649    42.771     5.231     0.029     0.028     4.160  1408.079     1.654     0.008 .00000E+00 0.000E+00 0.000E+00 0.000E+00 0.000E+00 0.000E+00
BIGSUB  10        0 2013.69770E-01  3096.300     0.000  1500.939   954.689   120.247   286.703   769.817   265.456  2127.799    21.948    36.215     4.437     0.037     0.044     3.572  1076.554     1.239     0.052 .00000E+00 0.000E+00 0.000E+00 0.000E+00 0.000E+00 0.000E+00
BIGSUB  11        0 2013.12671E+00  3096.300     0.000  1500.481   952.487   116.662   223.029   658.523   204.147  2129.373    28.949    42.125     5.158     0.041     0.028     4.109  1254.196     1.522     0.044 .00000E+00 0.000E+00 0.000E+00 0.000E+00 0.000E+00 0.000E+00
BIGSUB   1        0    1.35860E+00   549.600     0.000   142.876    98.932    98.923    31.796   156.857    11.718   438.861     8.893    27.657     3.378     0.004     0.010     2.673   269.769     0.402     0.002 .00000E+00 0.000E+00 0.000E+00 0.000E+00 0.000E+00 0.000E+00
BIGSUB   2        0    1.32997E+00   549.600     0.000   142.884   100.516   110.793    30.237   165.593    13.007   437.212     8.341    27.402     3.367     0.015     0.019     2.598   258.102     0.570     0.003 .00000E+00 0.000E+00 0.000E+00 0.000E+00 0.000E+00 0.000E+00
BIGSUB   3        0    1.49752E+00   549.600     0.000   142.898   101.180   110.488    75.447   178.994    36.591   417.476     7.617    25.411     3.138     0.017     0.022     2.385   200.437     0.454     0.017 .00000E+00 0.000E+00 0.000E+00 0.000E+00 0.000E+00 0.000E+00
BIGSUB   4        0    1.34608E+00   549.600     0.000   142.824    97.079    88.381    17.329   178.045     1.294   445.739     8.392    26.691     3.260     0.004     0.011     2.607   266.201     0.425     0.000 .00000E+00 0.000E+00 0.000E+00 0.000E+00 0.000E+00 0.000E+00
BIGSUB   5        0    1.24789E+00   549.600     0.000   142.720    96.313    89.357    14.193   177.611     1.627   449.208     9.615    27.568     3.367     0.004     0.010     2.698   269.814     0.408     0.001 .00000E+00 0.000E+00 0.000E+00 0.000E+00 0.000E+00 0.000E+00
BIGSUB   6        0    1.21516E+00   549.600     0.000   142.766    97.549    95.861    16.254   168.007     2.243   445.969     8.740    27.580     3.371     0.008     0.012     2.682   275.532     0.447     0.001 .00000E+00 0.000E+00 0.000E+00 0.000E+00 0.000E+00 0.000E+00
BIGSUB   7        0    1.52122E-01   549.600     0.000   142.759    95.530    87.929     9.169   176.500     0.867   452.953     9.114    27.253     3.329     0.004     0.011     2.663   275.510     0.391     0.000 .00000E+00 0.000E+00 0.000E+00 0.000E+00 0.000E+00 0.000E+00
BIGSUB   8        0    1.51507E-01   549.600     0.000   142.755    96.384    88.203    23.234   177.713     7.272   445.857     7.787    25.440     3.107     0.004     0.012     2.480   260.502     0.391     0.003 .00000E+00 0.000E+00 0.000E+00 0.000E+00 0.000E+00 0.000E+00
BIGSUB   9        0    1.22296E+00   549.600     0.000   142.712    96.838    91.286    20.136   177.830     4.143   445.485     8.928    26.835     3.278     0.004     0.010     2.625   263.237     0.405     0.002 .00000E+00 0.000E+00 0.000E+00 0.000E+00 0.000E+00 0.000E+00
BIGSUB  10        0    1.69770E-01   549.600     0.000   142.639   100.106   117.583    68.532   188.573    32.139   421.613     8.189    25.075     3.072     0.004     0.013     2.507   199.600     0.300     0.013 .00000E+00 0.000E+00 0.000E+00 0.000E+00 0.000E+00 0.000E+00
BIGSUB  11        0    1.12671E+00   549.600     0.000   142.689   100.024   115.083    54.388   165.885    25.414   427.627    10.291    26.765     3.269     0.004     0.010     2.629   235.313     0.334     0.010 .00000E+00 0.000E+00 0.000E+00 0.000E+00 0.000E+00 0.000E+00
BIGSUB   1        0    2.35860E+00   351.600     0.000   144.251   101.253   100.466    15.892    64.766    11.610   242.987     0.300     0.700     0.086     0.000     0.001     0.068   166.054     0.009     0.002 .00000E+00 0.000E+00 0.000E+00 0.000E+00 0.000E+00 0.000E+00
BIGSUB   2        0    2.32997E+00   351.600     0.000   144.261   101.681   112.475    15.831    71.917    13.026   244.490     1.059     2.014     0.251     0.973     0.002     0.184   158.999     3.255     0.002 .00000E+00 0.000E+00 0.000E+00 0.000E+00 0.000E+00 0.000E+00
BIGSUB   3        0    2.49752E+00   351.600     0.000   144.275   101.317   111.855    42.729    80.849    35.486   241.671     1.402     2.547     0.320     1.725     0.002     0.229   123.824     2.994     0.014 .00000E+00 0.000E+00 0.000E+00 0.000E+00 0.000E+00 0.000E+00
BIGSUB   4        0    2.34608E+00   351.600     0.000   144.197    99.601    89.687     6.746    76.815     3.953   245.500     0.299     0.797     0.097     0.000     0.001     0.078   164.497     0.007     0.000 .00000E+00 0.000E+00 0.000E+00 0.000E+00 0.000E+00 0.000E+00
BIGSUB   5        0    2.24789E+00   351.600     0.000   144.087    99.318    90.917     5.456    75.930     1.585   244.398     0.346     0.816     0.100     0.000     0.001     0.080   166.695     0.007     0.000 .00000E+00 0.000E+00 0.000E+00 0.000E+00 0.000E+00 0.000E+00
BIGSUB   6        0    2.21516E+00   351.600     0.000   144.135   100.285    97.500     6.614    71.094     2.205   243.183     0.294     0.781     0.096     0.055     0.001     0.076   169.662     0.418     0.001 .00000E+00 0.000E+00 0.000E+00 0.000E+00 0.000E+00 0.000E+00
BIGSUB   7        0    2.52122E-01   351.600     0.000   144.128    98.827    89.689     3.055    74.698     0.841   246.300     0.328     0.814     0.099     0.000     0.001     0.080   170.658     0.006     0.000 .00000E+00 0.000E+00 0.000E+00 0.000E+00 0.000E+00 0.000E+00
BIGSUB   8        0    2.51507E-01   351.600     0.000   144.123    99.185    89.707    11.627    75.698     7.048   244.145     0.280     0.770     0.094     0.000     0.001     0.075   160.996     0.006     0.002 .00000E+00 0.000E+00 0.000E+00 0.000E+00 0.000E+00 0.000E+00
BIGSUB   9        0    2.22296E+00   351.600     0.000   144.078    99.628    92.740     8.948    76.306     4.062   243.286     0.322     0.801     0.098     0.000     0.001     0.078   162.607     0.007     0.001 .00000E+00 0.000E+00 0.000E+00 0.000E+00 0.000E+00 0.000E+00
BIGSUB  10        0    2.69770E-01   351.600     0.000   144.001   101.831   118.881    38.860    84.060    31.339   239.347     0.336     0.904     0.111     0.000     0.002     0.092   122.590     0.006     0.009 .00000E+00 0.000E+00 0.000E+00 0.000E+00 0.000E+00 0.000E+00
BIGSUB  11        0    2.12671E+00   351.600     0.000   144.054   102.251   116.634    30.561    70.385    24.993   240.684     0.385     0.784     0.096     0.036     0.001     0.077   144.243     0.069     0.007 .00000E+00 0.000E+00 0.000E+00 0.000E+00 0.000E+00 0.000E+00
BIGSUB   1        0    3.35860E+00   222.800     0.000   167.252   131.959    67.821     5.051    34.502    12.973   135.024     0.015     0.034     0.004     0.000     0.001     0.003    86.882     0.002     0.001 .00000E+00 0.000E+00 0.000E+00 0.000E+00 0.000E+00 0.000E+00
BIGSUB   2        0    3.32997E+00   222.800     0.000   167.257   135.331    77.868     5.030    38.428    13.953   133.794     0.598     0.670     0.084     0.001     0.001     0.059    80.756     0.265     0.003 .00000E+00 0.000E+00 0.000E+00 0.000E+00 0.000E+00 0.000E+00
BIGSUB   3        0    3.49752E+00   222.800     0.000   167.265   135.741    79.615    14.844    42.913    39.456   147.856     0.892     0.996     0.126     0.013     0.001     0.087    63.689     0.155     0.031 .00000E+00 0.000E+00 0.000E+00 0.000E+00 0.000E+00 0.000E+00
BIGSUB   4        0    3.34608E+00   222.800     0.000   167.222   130.614    57.134     0.814    40.074     3.111   130.926     0.014     0.032     0.004     0.000     0.000     0.003    87.459     0.002     0.000 .00000E+00 0.000E+00 0.000E+00 0.000E+00 0.000E+00 0.000E+00
BIGSUB   5        0    3.24789E+00   222.800     0.000   167.163   129.651    57.241     0.670    39.613     1.777   131.861     0.016     0.034     0.004     0.000     0.000     0.003    90.244     0.002     0.000 .00000E+00 0.000E+00 0.000E+00 0.000E+00 0.000E+00 0.000E+00
BIGSUB   6        0    3.21516E+00   222.800     0.000   167.189   131.351    63.764     1.041    37.411     2.547   130.189     0.016     0.044     0.005     0.038     0.001     0.004    89.961     0.052     0.000 .00000E+00 0.000E+00 0.000E+00 0.000E+00 0.000E+00 0.000E+00
BIGSUB   7        0    3.52122E-01   222.800     0.000   167.185   128.735    54.123     0.392    39.046     0.953   134.031     0.016     0.034     0.004     0.000     0.000     0.003    93.906     0.002     0.000 .00000E+00 0.000E+00 0.000E+00 0.000E+00 0.000E+00 0.000E+00
BIGSUB   8        0    3.51507E-01   222.800     0.000   167.182   129.210    56.513     3.287    39.667     7.989   135.585     0.013     0.031     0.004     0.000     0.001     0.003    87.447     0.002     0.001 .00000E+00 0.000E+00 0.000E+00 0.000E+00 0.000E+00 0.000E+00
BIGSUB   9        0    3.22296E+00   222.800     0.000   167.158   130.209    59.739     1.816    39.880     4.507   132.361     0.015     0.033     0.004     0.000     0.000     0.003    87.601     0.002     0.001 .00000E+00 0.000E+00 0.000E+00 0.000E+00 0.000E+00 0.000E+00
BIGSUB  10        0    3.69770E-01   222.800     0.000   167.116   132.816    87.480    12.861    44.257    35.062   149.377     0.019     0.045     0.005     0.000     0.001     0.004    68.440     0.002     0.004 .00000E+00 0.000E+00 0.000E+00 0.000E+00 0.000E+00 0.000E+00
BIGSUB  11        0    3.12671E+00   222.800     0.000   167.145   132.977    83.749    10.350    37.612    27.597   144.967     0.030     0.070     0.009     0.000     0.000     0.007    78.488     0.009     0.004 .00000E+00 0.000E+00 0.000E+00 0.000E+00 0.000E+00 0.000E+00
BIGSUB   1        0    4.35860E+00   466.600     0.000   131.816   117.477   104.983    18.300    64.061    10.201   296.244     0.019     0.041     0.005     0.002     0.002     0.004   221.354     0.053     0.000 .00000E+00 0.000E+00 0.000E+00 0.000E+00 0.000E+00 0.000E+00
BIGSUB   2        0    4.32997E+00   466.600     0.000   131.813   119.454   114.713    18.615    72.990     9.154   295.511     0.908     0.870     0.109     0.641     0.002     0.073   212.751     0.401     0.001 .00000E+00 0.000E+00 0.000E+00 0.000E+00 0.000E+00 0.000E+00
BIGSUB   3        0    4.49752E+00   466.600     0.000   131.810   119.786   114.865    53.575    85.890    30.699   284.044     1.350     1.312     0.165     0.015     0.003     0.112   165.757     0.278     0.013 .00000E+00 0.000E+00 0.000E+00 0.000E+00 0.000E+00 0.000E+00
BIGSUB   4        0    4.34608E+00   466.600     0.000   131.829   116.954    94.163     5.846    80.420     0.144   297.035     0.019     0.043     0.005     0.002     0.002     0.004   216.218     0.053     0.000 .00000E+00 0.000E+00 0.000E+00 0.000E+00 0.000E+00 0.000E+00
BIGSUB   5        0    4.24789E+00   466.600     0.000   131.856   116.356    95.405     4.362    75.333     1.401   299.126     0.021     0.044     0.005     0.002     0.002     0.004   222.185     0.050     0.000 .00000E+00 0.000E+00 0.000E+00 0.000E+00 0.000E+00 0.000E+00
BIGSUB   6        0    4.21516E+00   466.600     0.000   131.844   117.351   101.843     5.997    71.390     1.870   298.373     0.020     0.054     0.007     0.002     0.002     0.005   224.864     0.055     0.000 .00000E+00 0.000E+00 0.000E+00 0.000E+00 0.000E+00 0.000E+00
BIGSUB   7        0    4.52122E-01   466.600     0.000   131.845   115.804    92.767     1.398    68.799     0.782   301.667     0.019     0.040     0.005     0.002     0.002     0.004   231.970     0.049     0.000 .00000E+00 0.000E+00 0.000E+00 0.000E+00 0.000E+00 0.000E+00
BIGSUB   8        0    4.51507E-01   466.600     0.000   131.847   116.098    94.171    12.969    74.768     6.554   296.968     0.017     0.039     0.005     0.002     0.003     0.004   215.192     0.048     0.000 .00000E+00 0.000E+00 0.000E+00 0.000E+00 0.000E+00 0.000E+00
BIGSUB   9        0    4.22296E+00   466.600     0.000   131.858   116.662    97.229     9.125    77.506     3.479   297.021     0.020     0.043     0.005     0.002     0.002     0.004   215.693     0.050     0.000 .00000E+00 0.000E+00 0.000E+00 0.000E+00 0.000E+00 0.000E+00
BIGSUB  10        0    4.69770E-01   466.600     0.000   131.876   118.132   123.273    50.303    89.333    27.349   282.230     0.021     0.047     0.006     0.002     0.003     0.005   164.020     0.035     0.001 .00000E+00 0.000E+00 0.000E+00 0.000E+00 0.000E+00 0.000E+00
BIGSUB  11        0    4.12671E+00   466.600     0.000   131.863   118.018   119.749    39.348    70.476    21.158   287.298     0.039     0.091     0.011     0.002     0.001     0.008   194.463     0.044     0.001 .00000E+00 0.000E+00 0.000E+00 0.000E+00 0.000E+00 0.000E+00
BIGSUB   1        0    5.35860E+00   221.200     0.000   141.318    80.770   102.788     7.489    37.638    11.240   154.493     0.021     0.045     0.006     0.004     0.002     0.004   104.967     0.127     0.000 .00000E+00 0.000E+00 0.000E+00 0.000E+00 0.000E+00 0.000E+00
BIGSUB   2        0    5.32997E+00   221.200     0.000   141.304    86.993   113.712     6.166    38.660    11.326   146.377     0.381     0.301     0.038     0.005     0.002     0.025    95.751     0.110     0.001 .00000E+00 0.000E+00 0.000E+00 0.000E+00 0.000E+00 0.000E+00
BIGSUB   3        0    5.49752E+00   221.200     0.000   141.281    89.705   113.075    18.452    42.567    33.768   156.130     0.556     0.439     0.055     0.004     0.002     0.037    78.019     0.100     0.006 .00000E+00 0.000E+00 0.000E+00 0.000E+00 0.000E+00 0.000E+00
BIGSUB   4        0    5.34608E+00   221.200     0.000   141.401    79.034    91.975     2.997    42.857     1.868   152.692     0.021     0.042     0.005     0.004     0.002     0.004   107.717     0.129     0.000 .00000E+00 0.000E+00 0.000E+00 0.000E+00 0.000E+00 0.000E+00
BIGSUB   5        0    5.24789E+00   221.200     0.000   141.569    78.374    93.130     2.314    42.500     1.591   153.809     0.023     0.043     0.005     0.005     0.002     0.004   109.517     0.129     0.000 .00000E+00 0.000E+00 0.000E+00 0.000E+00 0.000E+00 0.000E+00
BIGSUB   6        0    5.21516E+00   221.200     0.000   141.495    81.699    99.038     2.567    39.596     2.197   150.254     0.021     0.047     0.006     0.004     0.002     0.004   108.215     0.129     0.000 .00000E+00 0.000E+00 0.000E+00 0.000E+00 0.000E+00 0.000E+00
BIGSUB   7        0    5.52122E-01   221.200     0.000   141.505    77.343    91.842     0.635    41.590     0.872   154.122     0.021     0.041     0.005     0.005     0.002     0.004   111.552     0.129     0.000 .00000E+00 0.000E+00 0.000E+00 0.000E+00 0.000E+00 0.000E+00
BIGSUB   8        0    5.51507E-01   221.200     0.000   141.513    78.538    91.932     5.532    42.643     7.310   156.125     0.019     0.039     0.005     0.005     0.002     0.004   105.707     0.125     0.001 .00000E+00 0.000E+00 0.000E+00 0.000E+00 0.000E+00 0.000E+00
BIGSUB   9        0    5.22296E+00   221.200     0.000   141.583    78.912    94.994     4.166    42.657     4.018   153.875     0.022     0.042     0.005     0.005     0.002     0.004   106.854     0.127     0.000 .00000E+00 0.000E+00 0.000E+00 0.000E+00 0.000E+00 0.000E+00
BIGSUB  10        0    5.69770E-01   221.200     0.000   141.699    86.480   121.022    17.708    45.457    31.073   159.812     0.023     0.041     0.005     0.004     0.002     0.004    81.670     0.092     0.001 .00000E+00 0.000E+00 0.000E+00 0.000E+00 0.000E+00 0.000E+00
BIGSUB  11        0    5.12671E+00   221.200     0.000   141.618    82.076   118.698    15.177    39.487    24.603   158.103     0.036     0.063     0.008     0.004     0.001     0.006    92.745     0.110     0.001 .00000E+00 0.000E+00 0.000E+00 0.000E+00 0.000E+00 0.000E+00
BIGSUB   1        0    6.35860E+00   204.500     0.000   138.102    85.652    93.246     7.418    28.637     9.811   132.186     0.018     0.040     0.005     0.003     0.001     0.004    93.121     0.113     0.000 .00000E+00 0.000E+00 0.000E+00 0.000E+00 0.000E+00 0.000E+00
BIGSUB   2        0    6.32997E+00   204.500     0.000   138.085    80.444   106.445     8.854    31.108     9.779   133.439     0.266     0.224     0.028     0.003     0.001     0.018    91.945     0.116     0.000 .00000E+00 0.000E+00 0.000E+00 0.000E+00 0.000E+00 0.000E+00
BIGSUB   3        0    6.49752E+00   204.500     0.000   138.058    79.208   105.877    24.998    34.574    30.737   140.520     0.398     0.323     0.041     0.003     0.002     0.027    73.515     0.090     0.003 .00000E+00 0.000E+00 0.000E+00 0.000E+00 0.000E+00 0.000E+00
BIGSUB   4        0    6.34608E+00   204.500     0.000   138.202    83.943    82.769     3.361    32.745     1.777   129.349     0.017     0.039     0.005     0.003     0.001     0.004    94.585     0.111     0.000 .00000E+00 0.000E+00 0.000E+00 0.000E+00 0.000E+00 0.000E+00
BIGSUB   5        0    6.24789E+00   204.500     0.000   138.403    83.092    83.826     2.723    32.633     1.461   130.623     0.019     0.039     0.005     0.004     0.001     0.004    96.338     0.111     0.000 .00000E+00 0.000E+00 0.000E+00 0.000E+00 0.000E+00 0.000E+00
BIGSUB   6        0    6.21516E+00   204.500     0.000   138.315    83.569    90.257     3.181    30.545     1.886   129.507     0.018     0.042     0.005     0.003     0.001     0.004    96.844     0.120     0.000 .00000E+00 0.000E+00 0.000E+00 0.000E+00 0.000E+00 0.000E+00
BIGSUB   7        0    6.52122E-01   204.500     0.000   138.327    82.183    82.485     1.483    32.473     0.790   132.077     0.018     0.038     0.005     0.004     0.001     0.004    98.720     0.111     0.000 .00000E+00 0.000E+00 0.000E+00 0.000E+00 0.000E+00 0.000E+00
BIGSUB   8        0    6.51507E-01   204.500     0.000   138.336    83.187    82.720     5.775    32.612     6.624   132.765     0.016     0.036     0.004     0.004     0.002     0.003    93.085     0.107     0.001 .00000E+00 0.000E+00 0.000E+00 0.000E+00 0.000E+00 0.000E+00
BIGSUB   9        0    6.22296E+00   204.500     0.000   138.420    83.689    85.700     4.517    32.698     3.709   130.611     0.018     0.039     0.005     0.003     0.001     0.004    93.870     0.109     0.000 .00000E+00 0.000E+00 0.000E+00 0.000E+00 0.000E+00 0.000E+00
BIGSUB  10        0    6.69770E-01   204.500     0.000   138.559    88.762   111.889    18.924    35.496    27.692   136.334     0.019     0.037     0.005     0.003     0.002     0.003    71.605     0.081     0.002 .00000E+00 0.000E+00 0.000E+00 0.000E+00 0.000E+00 0.000E+00
BIGSUB  11        0    6.12671E+00   204.500     0.000   138.463    86.716   109.245    15.625    30.577    22.516   136.410     0.030     0.054     0.007     0.003     0.001     0.005    82.095     0.098     0.002 .00000E+00 0.000E+00 0.000E+00 0.000E+00 0.000E+00 0.000E+00
BIGSUB   1        0    7.35860E+00   729.100     0.000   111.577    67.271   106.569    23.532   427.373     7.516   618.348     1.136     2.714     0.334     0.011     0.021     0.249   182.849     0.296     0.000 .00000E+00 0.000E+00 0.000E+00 0.000E+00 0.000E+00 0.000E+00
BIGSUB   2        0    7.32997E+00   729.100     0.000   111.573    67.415   118.585    22.502   435.389     9.454   626.456     4.191     6.522     1.183     0.078     0.081     0.394   181.001     0.430     0.001 .00000E+00 0.000E+00 0.000E+00 0.000E+00 0.000E+00 0.000E+00
BIGSUB   3        0    7.49752E+00   729.100     0.000   111.567    67.932   117.906    56.970   445.497    28.854   611.516     5.434     7.848     1.357     0.113     0.098     0.443   135.458     0.354     0.003 .00000E+00 0.000E+00 0.000E+00 0.000E+00 0.000E+00 0.000E+00
BIGSUB   4        0    7.34608E+00   729.100     0.000   111.601    65.903    95.718    10.753   449.286     1.677   623.955     1.023     2.079     0.256     0.010     0.019     0.194   172.749     0.274     0.000 .00000E+00 0.000E+00 0.000E+00 0.000E+00 0.000E+00 0.000E+00
BIGSUB   5        0    7.24789E+00   729.100     0.000   111.649    65.172    96.958     8.841   448.998     1.314   625.701     1.124     2.070     0.255     0.012     0.019     0.194   175.197     0.273     0.000 .00000E+00 0.000E+00 0.000E+00 0.000E+00 0.000E+00 0.000E+00
BIGSUB   6        0    7.21516E+00   729.100     0.000   111.628    66.353   103.572    10.410   438.459     1.774   625.549     1.131     2.487     0.306     0.013     0.023     0.229   185.083     0.303     0.000 .00000E+00 0.000E+00 0.000E+00 0.000E+00 0.000E+00 0.000E+00
BIGSUB   7        0    7.52122E-01   729.100     0.000   111.631    64.438    95.725     5.767   448.297     0.708   628.222     1.034     1.998     0.246     0.013     0.020     0.187   179.124     0.274     0.000 .00000E+00 0.000E+00 0.000E+00 0.000E+00 0.000E+00 0.000E+00
BIGSUB   8        0    7.51507E-01   729.100     0.000   111.633    65.304    95.725    15.451   447.112     5.933   622.694     0.898     1.893     0.233     0.012     0.024     0.176   169.207     0.263     0.001 .00000E+00 0.000E+00 0.000E+00 0.000E+00 0.000E+00 0.000E+00
BIGSUB   9        0    7.22296E+00   729.100     0.000   111.653    65.689    98.787    12.915   449.129     3.332   623.565     1.075     2.052     0.253     0.011     0.019     0.192   170.770     0.268     0.000 .00000E+00 0.000E+00 0.000E+00 0.000E+00 0.000E+00 0.000E+00
BIGSUB  10        0    7.69770E-01   729.100     0.000   111.686    68.548   124.942    46.171   458.731    24.186   612.114     1.111     1.901     0.234     0.011     0.023     0.181   127.669     0.199     0.002 .00000E+00 0.000E+00 0.000E+00 0.000E+00 0.000E+00 0.000E+00
BIGSUB  11        0    7.12671E+00   729.100     0.000   111.663    68.310   122.771    37.637   437.492    20.248   617.008     1.624     2.816     0.356     0.015     0.021     0.256   158.051     0.261     0.002 .00000E+00 0.000E+00 0.000E+00 0.000E+00 0.000E+00 0.000E+00
BIGSUB   1        0    8.35860E+00   116.200     0.000   134.735    76.072    89.803     3.225     3.116    10.345    78.984     0.013     0.022     0.003     0.000     0.000     0.002    64.884     0.064     0.001 .00000E+00 0.000E+00 0.000E+00 0.000E+00 0.000E+00 0.000E+00
BIGSUB   2        0    8.32997E+00   116.200     0.000   134.737    79.104   100.438     3.489     4.288    11.620    74.347     0.106     0.060     0.011     0.006     0.001     0.004    57.801     0.099     0.001 .00000E+00 0.000E+00 0.000E+00 0.000E+00 0.000E+00 0.000E+00
BIGSUB   3        0    8.49752E+00   116.200     0.000   134.740    80.319   100.873     8.892     5.737    30.857    87.525     0.182     0.096     0.017     0.011     0.001     0.006    49.187     0.103     0.004 .00000E+00 0.000E+00 0.000E+00 0.000E+00 0.000E+00 0.000E+00
BIGSUB   4        0    8.34608E+00   116.200     0.000   134.725    74.153    79.475     2.031     3.803     4.409    77.920     0.014     0.027     0.003     0.000     0.000     0.003    69.439     0.070     0.000 .00000E+00 0.000E+00 0.000E+00 0.000E+00 0.000E+00 0.000E+00
BIGSUB   5        0    8.24789E+00   116.200     0.000   134.703    73.286    79.785     1.886     3.811     1.370    77.031     0.016     0.027     0.003     0.000     0.000     0.003    71.638     0.071     0.000 .00000E+00 0.000E+00 0.000E+00 0.000E+00 0.000E+00 0.000E+00
BIGSUB   6        0    8.21516E+00   116.200     0.000   134.713    75.527    85.411     2.095     3.510     1.965    74.000     0.013     0.024     0.003     0.000     0.000     0.002    68.269     0.067     0.000 .00000E+00 0.000E+00 0.000E+00 0.000E+00 0.000E+00 0.000E+00
BIGSUB   7        0    8.52122E-01   116.200     0.000   134.712    72.442    77.912     1.403     3.953     0.731    78.700     0.014     0.026     0.003     0.001     0.000     0.002    73.903     0.073     0.000 .00000E+00 0.000E+00 0.000E+00 0.000E+00 0.000E+00 0.000E+00
BIGSUB   8        0    8.51507E-01   116.200     0.000   134.711    73.328    78.731     3.381     5.717     6.133    81.598     0.012     0.026     0.003     0.000     0.001     0.002    69.291     0.069     0.002 .00000E+00 0.000E+00 0.000E+00 0.000E+00 0.000E+00 0.000E+00
BIGSUB   9        0    8.22296E+00   116.200     0.000   134.702    73.903    81.941     2.619     3.911     3.543    77.445     0.015     0.027     0.003     0.000     0.000     0.003    69.637     0.070     0.001 .00000E+00 0.000E+00 0.000E+00 0.000E+00 0.000E+00 0.000E+00
BIGSUB  10        0    8.69770E-01   116.200     0.000   134.687    77.677   108.499     9.646     5.010    26.221    87.647     0.017     0.027     0.003     0.001     0.000     0.003    54.883     0.058     0.004 .00000E+00 0.000E+00 0.000E+00 0.000E+00 0.000E+00 0.000E+00
BIGSUB  11        0    8.12671E+00   116.200     0.000   134.697    77.565   105.435     7.283     3.616    21.795    85.447     0.022     0.030     0.004     0.001     0.000     0.003    58.810     0.060     0.004 .00000E+00 0.000E+00 0.000E+00 0.000E+00 0.000E+00 0.000E+00
BIGSUB   1        0    9.35860E+00   109.600     0.000   137.796    59.200    88.761     1.383     7.696     5.359    56.379     0.104     0.197     0.024     0.001     0.000     0.018    42.746     0.060     0.000 .00000E+00 0.000E+00 0.000E+00 0.000E+00 0.000E+00 0.000E+00
BIGSUB   2        0    9.32997E+00   109.600     0.000   137.809    62.414    98.929     0.832     9.491     4.319    53.044     0.270     0.223     0.033     0.008     0.002     0.024    38.660     0.095     0.000 .00000E+00 0.000E+00 0.000E+00 0.000E+00 0.000E+00 0.000E+00
BIGSUB   3        0    9.49752E+00   109.600     0.000   137.829    64.256   100.136     3.715    11.507    15.962    60.159     0.379     0.263     0.040     0.013     0.002     0.028    31.143     0.090     0.001 .00000E+00 0.000E+00 0.000E+00 0.000E+00 0.000E+00 0.000E+00
BIGSUB   4        0    9.34608E+00   109.600     0.000   137.720    57.401    78.170     0.000     9.360     0.560    54.743     0.110     0.210     0.026     0.001     0.000     0.020    44.574     0.065     0.000 .00000E+00 0.000E+00 0.000E+00 0.000E+00 0.000E+00 0.000E+00
BIGSUB   5        0    9.24789E+00   109.600     0.000   137.568    56.804    78.010     0.231     9.089     0.667    55.667     0.118     0.203     0.025     0.001     0.000     0.019    45.709     0.056     0.000 .00000E+00 0.000E+00 0.000E+00 0.000E+00 0.000E+00 0.000E+00
BIGSUB   6        0    9.21516E+00   109.600     0.000   137.635    58.719    83.225     0.305     8.310     0.904    54.299     0.102     0.190     0.023     0.001     0.000     0.018    44.845     0.059     0.000 .00000E+00 0.000E+00 0.000E+00 0.000E+00 0.000E+00 0.000E+00
BIGSUB   7        0    9.52122E-01   109.600     0.000   137.626    55.612    75.498     0.187     8.869     0.384    57.209     0.106     0.193     0.024     0.002     0.000     0.018    47.843     0.056     0.000 .00000E+00 0.000E+00 0.000E+00 0.000E+00 0.000E+00 0.000E+00
BIGSUB   8        0    9.51507E-01   109.600     0.000   137.618    56.862    76.943     1.566     9.181     3.209    57.033     0.094     0.186     0.023     0.001     0.000     0.017    44.229     0.053     0.001 .00000E+00 0.000E+00 0.000E+00 0.000E+00 0.000E+00 0.000E+00
BIGSUB   9        0    9.22296E+00   109.600     0.000   137.555    57.332    80.410     0.560     9.244     1.640    55.629     0.115     0.204     0.025     0.001     0.000     0.019    44.421     0.058     0.000 .00000E+00 0.000E+00 0.000E+00 0.000E+00 0.000E+00 0.000E+00
BIGSUB  10        0    9.69770E-01   109.600     0.000   137.450    61.178   108.002     4.073    11.394    12.967    59.341     0.128     0.202     0.025     0.002     0.001     0.019    33.629     0.042     0.001 .00000E+00 0.000E+00 0.000E+00 0.000E+00 0.000E+00 0.000E+00
BIGSUB  11        0    9.12671E+00   109.600     0.000   137.523    60.502   104.460     3.211     8.898     9.858    58.007     0.168     0.211     0.026     0.002     0.000     0.020    38.167     0.053     0.001 .00000E+00 0.000E+00 0.000E+00 0.000E+00 0.000E+00 0.000E+00
BIGSUB   1        0   10.35860E+00    90.500     0.000   176.646    54.822    79.085     1.224     8.043     2.129    46.588     0.152     0.309     0.038     0.004     0.000     0.029    35.918     0.056     0.000 .00000E+00 0.000E+00 0.000E+00 0.000E+00 0.000E+00 0.000E+00
BIGSUB   2        0   10.32997E+00    90.500     0.000   176.653    57.835    89.431     0.574     9.687     1.392    43.343     0.267     0.296     0.041     0.020     0.001     0.032    31.775     0.069     0.000 .00000E+00 0.000E+00 0.000E+00 0.000E+00 0.000E+00 0.000E+00
BIGSUB   3        0   10.49752E+00    90.500     0.000   176.665    58.936    91.688     2.605    11.634     6.634    45.242     0.338     0.319     0.045     0.034     0.002     0.035    25.649     0.067     0.000 .00000E+00 0.000E+00 0.000E+00 0.000E+00 0.000E+00 0.000E+00
BIGSUB   4        0   10.34608E+00    90.500     0.000   176.602    52.335    69.374     0.000     9.955     0.000    46.984     0.161     0.338     0.042     0.004     0.000     0.032    36.817     0.054     0.000 .00000E+00 0.000E+00 0.000E+00 0.000E+00 0.000E+00 0.000E+00
BIGSUB   5        0   10.24789E+00    90.500     0.000   176.513    51.731    68.367     0.151     9.568     0.361    48.598     0.172     0.322     0.040     0.004     0.000     0.030    38.495     0.052     0.000 .00000E+00 0.000E+00 0.000E+00 0.000E+00 0.000E+00 0.000E+00
BIGSUB   6        0   10.21516E+00    90.500     0.000   176.552    53.550    73.269     0.193     8.709     0.461    47.212     0.148     0.301     0.037     0.004     0.000     0.028    37.835     0.054     0.000 .00000E+00 0.000E+00 0.000E+00 0.000E+00 0.000E+00 0.000E+00
BIGSUB   7        0   10.52122E-01    90.500     0.000   176.547    50.643    65.955     0.135     9.228     0.259    49.403     0.154     0.308     0.038     0.005     0.000     0.029    39.816     0.045     0.000 .00000E+00 0.000E+00 0.000E+00 0.000E+00 0.000E+00 0.000E+00
BIGSUB   8        0   10.51507E-01    90.500     0.000   176.543    51.702    67.461     1.127     9.636     2.170    49.489     0.137     0.298     0.037     0.004     0.001     0.028    37.321     0.050     0.000 .00000E+00 0.000E+00 0.000E+00 0.000E+00 0.000E+00 0.000E+00
BIGSUB   9        0   10.22296E+00    90.500     0.000   176.506    52.422    70.975     0.373     9.763     0.883    48.128     0.166     0.326     0.040     0.004     0.000     0.031    37.202     0.052     0.000 .00000E+00 0.000E+00 0.000E+00 0.000E+00 0.000E+00 0.000E+00
BIGSUB  10        0   10.69770E-01    90.500     0.000   176.445    57.823    98.105     2.374    11.855     6.329    47.737     0.176     0.309     0.038     0.006     0.001     0.030    28.391     0.038     0.000 .00000E+00 0.000E+00 0.000E+00 0.000E+00 0.000E+00 0.000E+00
BIGSUB  11        0   10.12671E+00    90.500     0.000   176.487    57.190    94.410     2.107     9.259     5.109    47.313     0.226     0.311     0.038     0.006     0.000     0.030    32.013     0.044     0.000 .00000E+00 0.000E+00 0.000E+00 0.000E+00 0.000E+00 0.000E+00
BIGSUB   1        0   11.35860E+00   332.200     0.000   134.858    89.677    97.895    11.842    46.207     3.005   214.995     1.668     2.954     0.362     0.003     0.002     0.276   165.375     0.330     0.000 .00000E+00 0.000E+00 0.000E+00 0.000E+00 0.000E+00 0.000E+00
BIGSUB   2        0   11.32997E+00   332.200     0.000   134.869    86.656   108.382    13.309    52.657     2.001   215.457     2.033     2.584     0.334     0.013     0.006     0.269   160.407     0.538     0.000 .00000E+00 0.000E+00 0.000E+00 0.000E+00 0.000E+00 0.000E+00
BIGSUB   3        0   11.49752E+00   332.200     0.000   134.886    85.802   109.941    40.598    61.111     9.111   197.534     2.220     2.468     0.325     0.020     0.008     0.266   126.218     0.427     0.001 .00000E+00 0.000E+00 0.000E+00 0.000E+00 0.000E+00 0.000E+00
BIGSUB   4        0   11.34608E+00   332.200     0.000   134.795    88.479    88.823     2.814    57.246     0.000   221.289     1.729     3.115     0.382     0.003     0.002     0.294   163.882     0.312     0.000 .00000E+00 0.000E+00 0.000E+00 0.000E+00 0.000E+00 0.000E+00
BIGSUB   5        0   11.24789E+00   332.200     0.000   134.667    87.209    89.282     1.774    53.516     0.435   222.499     1.829     2.890     0.355     0.003     0.002     0.274   168.412     0.297     0.000 .00000E+00 0.000E+00 0.000E+00 0.000E+00 0.000E+00 0.000E+00
BIGSUB   6        0   11.21516E+00   332.200     0.000   134.723    87.001    95.874     2.390    50.029     0.554   220.592     1.645     2.847     0.349     0.003     0.002     0.268   169.847     0.323     0.000 .00000E+00 0.000E+00 0.000E+00 0.000E+00 0.000E+00 0.000E+00
BIGSUB   7        0   11.52122E-01   332.200     0.000   134.715    86.157    84.080     0.963    51.060     0.284   226.948     1.648     2.765     0.339     0.003     0.002     0.261   175.524     0.310     0.000 .00000E+00 0.000E+00 0.000E+00 0.000E+00 0.000E+00 0.000E+00
BIGSUB   8        0   11.51507E-01   332.200     0.000   134.710    87.223    87.276     8.074    53.380     2.377   219.410     1.461     2.742     0.336     0.003     0.003     0.258   163.354     0.289     0.001 .00000E+00 0.000E+00 0.000E+00 0.000E+00 0.000E+00 0.000E+00
BIGSUB   9        0   11.22296E+00   332.200     0.000   134.657    87.850    91.823     4.898    54.854     1.065   219.494     1.754     2.933     0.360     0.003     0.002     0.277   163.353     0.293     0.000 .00000E+00 0.000E+00 0.000E+00 0.000E+00 0.000E+00 0.000E+00
BIGSUB  10        0   11.69770E-01   332.200     0.000   134.568    90.545   116.448    35.385    61.891     8.022   196.107     1.717     2.730     0.336     0.004     0.003     0.264   125.232     0.232     0.001 .00000E+00 0.000E+00 0.000E+00 0.000E+00 0.000E+00 0.000E+00
BIGSUB  11        0   11.12671E+00   332.200     0.000   134.629    90.496   112.344    27.012    50.702     6.282   203.087     2.195     2.783     0.342     0.004     0.002     0.266   145.333     0.300     0.001 .00000E+00 0.000E+00 0.000E+00 0.000E+00 0.000E+00 0.000E+00
BIGSUB   1        0   12.35860E+00   450.400     0.000   147.466    99.657   103.236    20.770   124.136     7.538   332.042     3.671     7.947     0.974     0.004     0.004     0.743   199.935     0.300     0.001 .00000E+00 0.000E+00 0.000E+00 0.000E+00 0.000E+00 0.000E+00
BIGSUB   2        0   12.32997E+00   450.400     0.000   147.473   100.157   115.130    20.232   130.145     7.530   330.803     3.741     6.629     0.832     0.020     0.011     0.664   192.699     0.447     0.001 .00000E+00 0.000E+00 0.000E+00 0.000E+00 0.000E+00 0.000E+00
BIGSUB   3        0   12.49752E+00   450.400     0.000   147.483   100.164   114.961    53.888   141.929    24.406   316.532     3.740     5.991     0.761     0.028     0.015     0.621   148.982     0.355     0.006 .00000E+00 0.000E+00 0.000E+00 0.000E+00 0.000E+00 0.000E+00
BIGSUB   4        0   12.34608E+00   450.400     0.000   147.428    97.546    92.417    10.094   140.674     0.000   338.669     3.488     7.702     0.944     0.004     0.004     0.728   197.836     0.316     0.000 .00000E+00 0.000E+00 0.000E+00 0.000E+00 0.000E+00 0.000E+00
BIGSUB   5        0   12.24789E+00   450.400     0.000   147.352    97.351    93.503     8.043   140.167     1.087   341.309     3.982     7.632     0.936     0.005     0.004     0.724   199.925     0.296     0.000 .00000E+00 0.000E+00 0.000E+00 0.000E+00 0.000E+00 0.000E+00
BIGSUB   6        0   12.21516E+00   450.400     0.000   147.385    98.411   100.141     9.541   133.024     1.439   339.174     3.629     7.738     0.949     0.009     0.006     0.730   204.553     0.342     0.001 .00000E+00 0.000E+00 0.000E+00 0.000E+00 0.000E+00 0.000E+00
BIGSUB   7        0   12.52122E-01   450.400     0.000   147.381    96.509    91.930     3.877   137.023     0.610   342.134     3.674     7.590     0.930     0.005     0.004     0.718   204.428     0.269     0.000 .00000E+00 0.000E+00 0.000E+00 0.000E+00 0.000E+00 0.000E+00
BIGSUB   8        0   12.51507E-01   450.400     0.000   147.377    97.242    92.307    14.962   139.765     5.117   337.925     3.209     7.437     0.911     0.005     0.006     0.702   192.728     0.278     0.002 .00000E+00 0.000E+00 0.000E+00 0.000E+00 0.000E+00 0.000E+00
BIGSUB   9        0   12.22296E+00   450.400     0.000   147.345    97.675    95.415    12.567   140.526     2.708   338.822     3.719     7.602     0.932     0.004     0.004     0.720   195.361     0.299     0.001 .00000E+00 0.000E+00 0.000E+00 0.000E+00 0.000E+00 0.000E+00
BIGSUB  10        0   12.69770E-01   450.400     0.000   147.292   100.393   121.938    47.803   148.452    21.312   318.420     3.501     7.050     0.867     0.005     0.005     0.681   147.589     0.214     0.007 .00000E+00 0.000E+00 0.000E+00 0.000E+00 0.000E+00 0.000E+00
BIGSUB  11        0   12.12671E+00   450.400     0.000   147.329   100.500   119.369    37.606   129.849    16.186   321.680     4.405     7.194     0.883     0.005     0.004     0.684   174.798     0.251     0.006 .00000E+00 0.000E+00 0.000E+00 0.000E+00 0.000E+00 0.000E+00
BIGSUB   1        0 2014.35860E+00  3844.300     0.000  1708.693  1062.743   103.236   147.923  1003.033   103.445  2747.131    16.010    42.662     5.217     0.035     0.043     4.074  1633.854     1.811     0.009 .00000E+00 0.000E+00 0.000E+00 0.000E+00 0.000E+00 0.000E+00
BIGSUB   2        0 2014.32997E+00  3844.300     0.000  1708.717  1077.999   115.130   145.672  1060.354   106.561  2734.273    22.162    47.793     6.309     1.783     0.130     4.345  1560.646     6.395     0.014 .00000E+00 0.000E+00 0.000E+00 0.000E+00 0.000E+00 0.000E+00
BIGSUB   3        0 2014.49752E+00  3844.300     0.000  1708.756  1084.345   114.961   396.712  1143.203   322.562  2706.206    24.509    48.012     6.390     1.995     0.159     4.277  1221.878     5.467     0.100 .00000E+00 0.000E+00 0.000E+00 0.000E+00 0.000E+00 0.000E+00
BIGSUB   4        0 2014.34608E+00  3844.300     0.000  1708.546  1043.042    92.417    62.785  1121.279    18.793  2764.801    15.287    41.116     5.029     0.036     0.043     3.970  1621.973     1.820     0.000 .00000E+00 0.000E+00 0.000E+00 0.000E+00 0.000E+00 0.000E+00
BIGSUB   5        0 2014.24789E+00  3844.300     0.000  1708.250  1034.658    93.503    50.646  1108.769    14.676  2779.831    17.282    41.688     5.100     0.040     0.041     4.035  1654.170     1.751     0.003 .00000E+00 0.000E+00 0.000E+00 0.000E+00 0.000E+00 0.000E+00
BIGSUB   6        0 2014.21516E+00  3844.300     0.000  1708.380  1051.364   100.141    60.588  1060.084    20.045  2758.303    15.775    42.135     5.158     0.142     0.051     4.050  1675.511     2.369     0.003 .00000E+00 0.000E+00 0.000E+00 0.000E+00 0.000E+00 0.000E+00
BIGSUB   7        0 2014.52122E-01  3844.300     0.000  1708.362  1024.222    91.930    28.463  1091.536     8.081  2803.765    16.146    41.100     5.027     0.043     0.043     3.973  1702.954     1.716     0.002 .00000E+00 0.000E+00 0.000E+00 0.000E+00 0.000E+00 0.000E+00
BIGSUB   8        0 2014.51507E-01  3844.300     0.000  1708.348  1034.264    92.307   106.984  1107.892    67.737  2779.596    13.943    38.937     4.762     0.040     0.055     3.753  1599.061     1.682     0.014 .00000E+00 0.000E+00 0.000E+00 0.000E+00 0.000E+00 0.000E+00
BIGSUB   9        0 2014.22296E+00  3844.300     0.000  1708.225  1040.808    95.415    82.640  1114.307    37.089  2765.725    16.168    40.936     5.007     0.039     0.043     3.961  1610.605     1.738     0.006 .00000E+00 0.000E+00 0.000E+00 0.000E+00 0.000E+00 0.000E+00
BIGSUB  10        0 2014.69770E-01  3844.300     0.000  1708.018  1084.290   121.938   352.641  1184.510   283.691  2710.079    15.257    38.368     4.708     0.041     0.054     3.794  1225.319     1.297     0.045 .00000E+00 0.000E+00 0.000E+00 0.000E+00 0.000E+00 0.000E+00
BIGSUB  11        0 2014.12671E+00  3844.300     0.000  1708.161  1076.624   119.369   280.304  1054.236   225.760  2727.630    19.449    41.171     5.050     0.081     0.044     3.991  1434.520     1.634     0.039 .00000E+00 0.000E+00 0.000E+00 0.000E+00 0.000E+00 0.000E+00
BIGSUB   1        0    1.35860E+00   682.500     0.000   139.196   103.246   104.177    40.021   215.132    13.584   545.912    16.252    36.950     4.512     0.004     0.013     3.548   316.626     0.437     0.003 .00000E+00 0.000E+00 0.000E+00 0.000E+00 0.000E+00 0.000E+00
[...]
BIGSUB   6        0    8.21516E+00   160.100     0.000   189.468    80.516    76.333     0.482     9.391     0.227    80.128     0.033     0.080     0.010     0.003     0.000     0.008    70.235     0.114     0.000 .00000E+00 0.000E+00 0.000E+00 0.000E+00 0.000E+00 0.000E+00
BIGSUB   7        0    8.52122E-01   160.100     0.000   189.487    76.774    68.706     0.298     9.820     0.173    84.396     0.035     0.083     0.010     0.003     0.000     0.008    74.244     0.105     0.000 .00000E+00 0.000E+00 0.000E+00 0.000E+00 0.000E+00 0.000E+00
BIGSUB   8        0    8.51507E-01   160.100     0.000   189.502    77.896    70.831     2.492    10.547     1.445    81.754     0.032     0.079     0.010     0.003     0.001     0.007    69.333     0.106     0.000 .00000E+00 0.000E+00 0.000E+00 0.000E+00 0.000E+00 0.000E+00
BIGSUB   9        0    8.22296E+00   160.100     0.000   189.631    78.609    74.706     1.034    10.832     0.419    80.863     0.039     0.092     0.011     0.003     0.001     0.009    69.262     0.111     0.000 .00000E+00 0.000E+00 0.000E+00 0.000E+00 0.000E+00 0.000E+00
BIGSUB  10        0    8.69770E-01   160.100     0.000   189.845    83.615   102.911     5.999    14.268     2.495    70.642     0.047     0.100     0.012     0.003     0.001     0.010    52.627     0.082     0.000 .00000E+00 0.000E+00 0.000E+00 0.000E+00 0.000E+00 0.000E+00
BIGSUB  11        0    8.12671E+00   160.100     0.000   189.697    83.616    98.862     6.012    10.680     2.274    73.365     0.061     0.122     0.015     0.004     0.001     0.012    59.401     0.101     0.000 .00000E+00 0.000E+00 0.000E+00 0.000E+00 0.000E+00 0.000E+00
BIGSUB   1        0    9.35860E+00   167.200     0.000   114.593    75.001    88.226     3.799     9.280     2.783    87.105     0.086     0.236     0.029     0.001     0.000     0.022    74.578     0.135     0.000 .00000E+00 0.000E+00 0.000E+00 0.000E+00 0.000E+00 0.000E+00
BIGSUB   2        0    9.32997E+00   167.200     0.000   114.613    76.504   100.142     3.007    11.688     1.349    82.444     0.256     0.423     0.066     0.013     0.003     0.040    68.980     0.258     0.000 .00000E+00 0.000E+00 0.000E+00 0.000E+00 0.000E+00 0.000E+00
BIGSUB   3        0    9.49752E+00   167.200     0.000   114.646    77.202   103.049    12.081    14.901     7.275    79.366     0.372     0.505     0.078     0.026     0.005     0.046    56.069     0.318     0.000 .00000E+00 0.000E+00 0.000E+00 0.000E+00 0.000E+00 0.000E+00
BIGSUB   4        0    9.34608E+00   167.200     0.000   114.469    73.753    80.256     0.000    11.909     0.000    87.273     0.091     0.251     0.031     0.001     0.001     0.024    75.154     0.120     0.000 .00000E+00 0.000E+00 0.000E+00 0.000E+00 0.000E+00 0.000E+00
BIGSUB   5        0    9.24789E+00   167.200     0.000   114.223    72.565    76.679     0.678    10.963     0.405    90.119     0.096     0.248     0.030     0.001     0.000     0.023    78.570     0.124     0.000 .00000E+00 0.000E+00 0.000E+00 0.000E+00 0.000E+00 0.000E+00
BIGSUB   6        0    9.21516E+00   167.200     0.000   114.331    73.899    81.825     0.879    10.030     0.510    88.037     0.083     0.227     0.028     0.001     0.000     0.021    77.288     0.129     0.000 .00000E+00 0.000E+00 0.000E+00 0.000E+00 0.000E+00 0.000E+00
BIGSUB   7        0    9.52122E-01   167.200     0.000   114.316    71.676    72.234     0.397    10.333     0.288    92.485     0.085     0.227     0.028     0.001     0.000     0.021    81.743     0.127     0.000 .00000E+00 0.000E+00 0.000E+00 0.000E+00 0.000E+00 0.000E+00
BIGSUB   8        0    9.51507E-01   167.200     0.000   114.304    72.602    75.368     3.330    11.014     2.413    89.928     0.076     0.215     0.026     0.001     0.001     0.020    76.155     0.120     0.001 .00000E+00 0.000E+00 0.000E+00 0.000E+00 0.000E+00 0.000E+00
BIGSUB   9        0    9.22296E+00   167.200     0.000   114.202    73.162    80.172     1.668    11.335     0.993    88.599     0.093     0.246     0.030     0.001     0.001     0.023    76.001     0.121     0.000 .00000E+00 0.000E+00 0.000E+00 0.000E+00 0.000E+00 0.000E+00
BIGSUB  10        0    9.69770E-01   167.200     0.000   114.031    75.933   108.194    13.434    14.291     6.791    80.679     0.099     0.244     0.030     0.001     0.001     0.024    58.591     0.097     0.001 .00000E+00 0.000E+00 0.000E+00 0.000E+00 0.000E+00 0.000E+00
BIGSUB  11        0    9.12671E+00   167.200     0.000   114.149    75.826   103.985     9.853    10.758     5.775    83.347     0.127     0.290     0.036     0.002     0.001     0.028    65.997     0.123     0.001 .00000E+00 0.000E+00 0.000E+00 0.000E+00 0.000E+00 0.000E+00
BIGSUB   1        0   10.35860E+00   159.000     0.000   159.927    84.523    90.505     2.338     2.445     1.977    68.519     0.035     0.072     0.009     0.001     0.000     0.007    63.704     0.092     0.000 .00000E+00 0.000E+00 0.000E+00 0.000E+00 0.000E+00 0.000E+00
BIGSUB   2        0   10.32997E+00   159.000     0.000   159.945    84.359   104.118     2.376     5.032     1.387    67.350     0.151     0.161     0.025     0.020     0.002     0.021    60.578     0.209     0.000 .00000E+00 0.000E+00 0.000E+00 0.000E+00 0.000E+00 0.000E+00
BIGSUB   3        0   10.49752E+00   159.000     0.000   159.974    84.866   105.754    11.396     7.926     7.668    65.752     0.244     0.211     0.032     0.035     0.002     0.026    49.189     0.186     0.000 .00000E+00 0.000E+00 0.000E+00 0.000E+00 0.000E+00 0.000E+00
BIGSUB   4        0   10.34608E+00   159.000     0.000   159.820    83.420    81.972     0.000     4.268     0.000    69.498     0.053     0.117     0.014     0.001     0.000     0.011    65.067     0.088     0.000 .00000E+00 0.000E+00 0.000E+00 0.000E+00 0.000E+00 0.000E+00
BIGSUB   5        0   10.24789E+00   159.000     0.000   159.607    80.965    78.429     0.505     3.325     0.436    71.814     0.046     0.094     0.012     0.001     0.000     0.009    67.908     0.078     0.000 .00000E+00 0.000E+00 0.000E+00 0.000E+00 0.000E+00 0.000E+00
BIGSUB   6        0   10.21516E+00   159.000     0.000   159.701    81.819    84.200     0.655     3.079     0.549    70.862     0.038     0.082     0.010     0.001     0.000     0.008    67.065     0.091     0.000 .00000E+00 0.000E+00 0.000E+00 0.000E+00 0.000E+00 0.000E+00
BIGSUB   7        0   10.52122E-01   159.000     0.000   159.688    79.030    73.969     0.326     2.662     0.289    73.813     0.033     0.071     0.009     0.001     0.000     0.007    70.765     0.070     0.000 .00000E+00 0.000E+00 0.000E+00 0.000E+00 0.000E+00 0.000E+00
BIGSUB   8        0   10.51507E-01   159.000     0.000   159.678    80.910    77.177     2.728     3.313     2.419    71.886     0.034     0.077     0.009     0.001     0.000     0.007    65.855     0.074     0.001 .00000E+00 0.000E+00 0.000E+00 0.000E+00 0.000E+00 0.000E+00
BIGSUB   9        0   10.22296E+00   159.000     0.000   159.589    82.144    81.976     1.224     3.699     1.064    70.607     0.049     0.102     0.012     0.001     0.000     0.010    65.621     0.079     0.000 .00000E+00 0.000E+00 0.000E+00 0.000E+00 0.000E+00 0.000E+00
BIGSUB  10        0   10.69770E-01   159.000     0.000   159.441    86.561   110.651     9.592     6.538     7.764    65.280     0.070     0.130     0.016     0.002     0.000     0.013    50.095     0.059     0.001 .00000E+00 0.000E+00 0.000E+00 0.000E+00 0.000E+00 0.000E+00
BIGSUB  11        0   10.12671E+00   159.000     0.000   159.543    85.946   106.211     7.177     3.667     6.255    67.163     0.078     0.118     0.015     0.002     0.000     0.012    56.525     0.079     0.001 .00000E+00 0.000E+00 0.000E+00 0.000E+00 0.000E+00 0.000E+00
BIGSUB   1        0   11.35860E+00   334.500     0.000   145.133    86.261    89.299    11.685    94.527     3.638   245.649     2.252     5.824     0.712     0.005     0.004     0.546   147.144     0.321     0.001 .00000E+00 0.000E+00 0.000E+00 0.000E+00 0.000E+00 0.000E+00
BIGSUB   2        0   11.32997E+00   334.500     0.000   145.142    84.464    99.201    13.527   100.945     3.224   247.794     2.605     5.415     0.704     0.025     0.015     0.565   143.313     0.561     0.001 .00000E+00 0.000E+00 0.000E+00 0.000E+00 0.000E+00 0.000E+00
BIGSUB   3        0   11.49752E+00   334.500     0.000   145.157    83.804   100.925    37.275   110.444    14.379   236.592     2.766     5.058     0.663     0.033     0.018     0.534   110.873     0.483     0.003 .00000E+00 0.000E+00 0.000E+00 0.000E+00 0.000E+00 0.000E+00
BIGSUB   4        0   11.34608E+00   334.500     0.000   145.077    85.002    83.236     1.904   111.192     0.000   251.208     2.243     5.596     0.685     0.005     0.004     0.531   139.895     0.285     0.000 .00000E+00 0.000E+00 0.000E+00 0.000E+00 0.000E+00 0.000E+00
BIGSUB   5        0   11.24789E+00   334.500     0.000   144.965    83.642    80.763     1.519   104.479     0.660   252.567     2.423     5.572     0.682     0.005     0.004     0.529   147.314     0.292     0.000 .00000E+00 0.000E+00 0.000E+00 0.000E+00 0.000E+00 0.000E+00
BIGSUB   6        0   11.21516E+00   334.500     0.000   145.014    83.978    87.163     2.048    99.878     0.835   250.694     2.240     5.552     0.680     0.006     0.005     0.524   149.847     0.330     0.000 .00000E+00 0.000E+00 0.000E+00 0.000E+00 0.000E+00 0.000E+00
BIGSUB   7        0   11.52122E-01   334.500     0.000   145.007    82.287    74.814     0.807    99.439     0.395   255.773     2.171     5.227     0.640     0.005     0.004     0.495   155.864     0.314     0.000 .00000E+00 0.000E+00 0.000E+00 0.000E+00 0.000E+00 0.000E+00
BIGSUB   8        0   11.51507E-01   334.500     0.000   145.002    83.445    78.740     6.765   104.034     3.307   250.912     1.936     4.999     0.612     0.005     0.005     0.473   143.311     0.286     0.001 .00000E+00 0.000E+00 0.000E+00 0.000E+00 0.000E+00 0.000E+00
BIGSUB   9        0   11.22296E+00   334.500     0.000   144.955    84.431    84.453     3.876   106.846     1.611   250.241     2.307     5.490     0.672     0.005     0.004     0.521   141.601     0.280     0.000 .00000E+00 0.000E+00 0.000E+00 0.000E+00 0.000E+00 0.000E+00
BIGSUB  10        0   11.69770E-01   334.500     0.000   144.877    87.329   107.579    29.884   113.562    12.488   237.517     2.155     4.888     0.599     0.005     0.005     0.471   110.662     0.229     0.003 .00000E+00 0.000E+00 0.000E+00 0.000E+00 0.000E+00 0.000E+00
BIGSUB  11        0   11.12671E+00   334.500     0.000   144.931    87.300   103.226    23.575    99.326     9.596   240.406     2.743     5.764     0.707     0.006     0.004     0.555   130.836     0.306     0.003 .00000E+00 0.000E+00 0.000E+00 0.000E+00 0.000E+00 0.000E+00
BIGSUB   1        0   12.35860E+00   398.800     0.000   134.305    91.199   101.037    19.933    74.929     6.651   280.433     4.458     7.179     0.878     0.003     0.003     0.678   198.490     0.348     0.001 .00000E+00 0.000E+00 0.000E+00 0.000E+00 0.000E+00 0.000E+00
BIGSUB   2        0   12.32997E+00   398.800     0.000   134.319    91.860   112.907    19.683    80.067     6.736   278.817     4.660     6.264     0.795     0.019     0.009     0.658   191.661     0.572     0.001 .00000E+00 0.000E+00 0.000E+00 0.000E+00 0.000E+00 0.000E+00
BIGSUB   3        0   12.49752E+00   398.800     0.000   134.342    92.320   112.185    52.944    91.633    22.837   264.309     4.762     5.794     0.743     0.025     0.011     0.625   148.808     0.501     0.006 .00000E+00 0.000E+00 0.000E+00 0.000E+00 0.000E+00 0.000E+00
BIGSUB   4        0   12.34608E+00   398.800     0.000   134.222    89.959    90.346    10.974    90.471     0.000   287.808     4.370     7.406     0.906     0.003     0.003     0.703   197.225     0.379     0.000 .00000E+00 0.000E+00 0.000E+00 0.000E+00 0.000E+00 0.000E+00
BIGSUB   5        0   12.24789E+00   398.800     0.000   134.054    89.023    91.558     7.927    88.194     0.992   289.015     5.029     7.686     0.940     0.004     0.003     0.731   199.724     0.345     0.000 .00000E+00 0.000E+00 0.000E+00 0.000E+00 0.000E+00 0.000E+00
BIGSUB   6        0   12.21516E+00   398.800     0.000   134.128    89.985    98.094     9.293    82.745     1.269   287.252     4.409     7.321     0.896     0.007     0.004     0.693   203.113     0.401     0.000 .00000E+00 0.000E+00 0.000E+00 0.000E+00 0.000E+00 0.000E+00
BIGSUB   7        0   12.52122E-01   398.800     0.000   134.118    87.902    90.328     3.461    83.403     0.558   289.380     4.602     7.398     0.905     0.004     0.003     0.702   205.352     0.318     0.000 .00000E+00 0.000E+00 0.000E+00 0.000E+00 0.000E+00 0.000E+00
BIGSUB   8        0   12.51507E-01   398.800     0.000   134.110    88.962    90.337    14.800    87.424     4.679   285.308     4.051     7.134     0.873     0.004     0.004     0.676   192.936     0.327     0.002 .00000E+00 0.000E+00 0.000E+00 0.000E+00 0.000E+00 0.000E+00
BIGSUB   9        0   12.22296E+00   398.800     0.000   134.040    89.639    93.380    12.832    89.527     2.458   286.921     4.702     7.531     0.921     0.004     0.003     0.716   194.755     0.352     0.001 .00000E+00 0.000E+00 0.000E+00 0.000E+00 0.000E+00 0.000E+00
BIGSUB  10        0   12.69770E-01   398.800     0.000   133.924    91.921   119.388    48.719    95.852    19.287   263.295     4.375     6.926     0.848     0.004     0.004     0.667   147.252     0.250     0.006 .00000E+00 0.000E+00 0.000E+00 0.000E+00 0.000E+00 0.000E+00
BIGSUB  11        0   12.12671E+00   398.800     0.000   134.005    91.774   117.161    37.603    79.076    14.594   267.835     5.183     6.974     0.854     0.004     0.003     0.672   173.445     0.290     0.005 .00000E+00 0.000E+00 0.000E+00 0.000E+00 0.000E+00 0.000E+00
BIGSUB   1        0 2016.35860E+00  3003.700     0.000  1726.196   869.594   101.037   119.205   681.972    96.171  2124.132     7.388    14.621     1.788     0.031     0.024     1.378  1339.059     1.347     0.007 .00000E+00 0.000E+00 0.000E+00 0.000E+00 0.000E+00 0.000E+00
BIGSUB   2        0 2016.32997E+00  3003.700     0.000  1726.211   890.939   112.907   115.079   731.080    96.467  2106.378    12.166    21.684     2.804     0.785     0.060     1.982  1272.248     4.678     0.010 .00000E+00 0.000E+00 0.000E+00 0.000E+00 0.000E+00 0.000E+00
BIGSUB   3        0 2016.49752E+00  3003.700     0.000  1726.235   898.665   112.185   312.126   802.013   295.766  2111.973    14.672    23.991     3.117     1.373     0.073     2.162   996.664     4.945     0.070 .00000E+00 0.000E+00 0.000E+00 0.000E+00 0.000E+00 0.000E+00
BIGSUB   4        0 2016.34608E+00  3003.700     0.000  1726.104   853.024    90.346    50.935   783.081    24.826  2134.110     7.327    14.707     1.799     0.033     0.025     1.397  1323.142     1.327     0.000 .00000E+00 0.000E+00 0.000E+00 0.000E+00 0.000E+00 0.000E+00
BIGSUB   5        0 2016.24789E+00  3003.700     0.000  1725.919   842.485    91.558    43.374   763.275    13.335  2140.342     8.232    15.015     1.837     0.036     0.024     1.428  1361.139     1.286     0.002 .00000E+00 0.000E+00 0.000E+00 0.000E+00 0.000E+00 0.000E+00
BIGSUB   6        0 2016.21516E+00  3003.700     0.000  1726.001   859.012    98.094    50.463   727.072    19.889  2123.417     7.323    14.607     1.788     0.054     0.028     1.379  1373.445     1.759     0.002 .00000E+00 0.000E+00 0.000E+00 0.000E+00 0.000E+00 0.000E+00
BIGSUB   7        0 2016.52122E-01  3003.700     0.000  1725.989   832.035    90.328    26.961   742.235     7.420  2160.390     7.483    14.292     1.749     0.038     0.024     1.357  1409.075     1.271     0.001 .00000E+00 0.000E+00 0.000E+00 0.000E+00 0.000E+00 0.000E+00
BIGSUB   8        0 2016.51507E-01  3003.700     0.000  1725.980   842.058    90.337    88.870   761.749    62.207  2146.626     6.611    13.683     1.674     0.036     0.032     1.296  1317.618     1.237     0.010 .00000E+00 0.000E+00 0.000E+00 0.000E+00 0.000E+00 0.000E+00
BIGSUB   9        0 2016.22296E+00  3003.700     0.000  1725.903   849.456    93.380    67.978   771.549    40.585  2137.376     7.752    14.733     1.803     0.035     0.025     1.401  1321.287     1.273     0.005 .00000E+00 0.000E+00 0.000E+00 0.000E+00 0.000E+00 0.000E+00
BIGSUB  10        0 2016.69770E-01  3003.700     0.000  1725.772   890.855   119.388   281.720   827.115   257.861  2111.325     7.327    13.572     1.662     0.036     0.030     1.310  1010.764     0.960     0.034 .00000E+00 0.000E+00 0.000E+00 0.000E+00 0.000E+00 0.000E+00
BIGSUB  11        0 2016.12671E+00  3003.700     0.000  1725.862   884.772   117.161   223.679   721.987   205.610  2119.884     8.915    14.897     1.829     0.066     0.024     1.432  1179.812     1.245     0.030 .00000E+00 0.000E+00 0.000E+00 0.000E+00 0.000E+00 0.000E+00
BIGSUB   1        0  4.0.35860E+00  3445.525     0.000  1685.280   960.991   101.037   134.837   836.232    99.025  2454.144    23.284    43.363     5.303     0.031     0.032     4.133  1512.040     1.714     0.010 .00000E+00 0.000E+00 0.000E+00 0.000E+00 0.000E+00 0.000E+00
BIGSUB   2        0  4.0.32997E+00  3445.525     0.000  1685.263   978.889   112.907   131.856   890.309   101.214  2441.473    27.451    46.692     5.962     1.082     0.095     4.352  1443.247     5.152     0.013 .00000E+00 0.000E+00 0.000E+00 0.000E+00 0.000E+00 0.000E+00
BIGSUB   3        0  4.0.49752E+00  3445.525     0.000  1685.237   985.174   112.185   359.697   971.035   310.415  2428.392    28.638    46.016     5.960     2.264     0.116     4.267  1128.728     4.577     0.083 .00000E+00 0.000E+00 0.000E+00 0.000E+00 0.000E+00 0.000E+00
BIGSUB   4        0  4.0.34608E+00  3445.525     0.000  1685.377   943.553    90.346    56.863   947.375    22.283  2468.817    22.196    41.723     5.103     0.032     0.033     4.023  1496.245     1.708     0.001 .00000E+00 0.000E+00 0.000E+00 0.000E+00 0.000E+00 0.000E+00
BIGSUB   5        0  4.0.24789E+00  3445.525     0.000  1685.569   933.360    91.558    47.350   928.915    14.215  2479.806    25.113    41.828     5.117     0.035     0.031     4.046  1534.250     1.652     0.003 .00000E+00 0.000E+00 0.000E+00 0.000E+00 0.000E+00 0.000E+00
BIGSUB   6        0  4.0.21516E+00  3445.525     0.000  1685.485   950.250    98.094    55.800   886.387    21.119  2461.889    22.961    41.868     5.124     0.089     0.039     4.021  1551.525     2.108     0.003 .00000E+00 0.000E+00 0.000E+00 0.000E+00 0.000E+00 0.000E+00
BIGSUB   7        0  4.0.52122E-01  3445.525     0.000  1685.497   922.775    90.328    27.951   908.315     7.808  2502.273    23.469    41.406     5.065     0.037     0.033     4.000  1584.710     1.628     0.002 .00000E+00 0.000E+00 0.000E+00 0.000E+00 0.000E+00 0.000E+00
BIGSUB   8        0  4.0.51507E-01  3445.525     0.000  1685.506   932.751    90.337    98.993   927.748    65.455  2482.684    20.265    39.595     4.843     0.035     0.043     3.812  1484.449     1.588     0.013 .00000E+00 0.000E+00 0.000E+00 0.000E+00 0.000E+00 0.000E+00
BIGSUB   9        0  4.0.22296E+00  3445.525     0.000  1685.585   939.996    93.380    76.020   936.866    40.133  2471.940    23.485    41.345     5.057     0.034     0.033     3.996  1491.062     1.637     0.007 .00000E+00 0.000E+00 0.000E+00 0.000E+00 0.000E+00 0.000E+00
BIGSUB  10        0  4.0.69770E-01  3445.525     0.000  1685.716   980.179   119.388   323.312  1003.406   276.902  2434.009    21.854    37.748     4.627     0.037     0.043     3.708  1137.302     1.225     0.048 .00000E+00 0.000E+00 0.000E+00 0.000E+00 0.000E+00 0.000E+00
BIGSUB  11        0  4.0.12671E+00  3445.525     0.000  1685.625   975.045   117.161   255.747   882.897   218.008  2444.198    27.851    41.112     5.038     0.065     0.033     3.986  1330.315     1.533     0.041 .00000E+00 0.000E+00 0.000E+00 0.000E+00 0.000E+00 0.000E+00
