1
    SWAT Dec 23 2016    VER 2016/Rev 664                                                                 0/ 0/   0      0: 0: 0

    General Input/Output section (file.cio):                                        
    2/7/2020 21:40:12 QSWAT Workflow v1.5.2                                         
                                                                                    


LULC  HRU       GIS  SUB  MGT  MON   AREAkm2  PRECIPmm SNOFALLmm SNOMELTmm     IRRmm     PETmm      ETmm SW_INITmm  SW_ENDmm    PERCmm GW_RCHGmm DA_RCHGmm   REVAPmm  SA_IRRmm  DA_IRRmm   SA_STmm   DA_STmmSURQ_GENmmSURQ_CNTmm   TLOSSmm LATQGENmm    GW_Qmm    WYLDmm   DAILYCN TMP_AVdgC TMP_MXdgC TMP_MNdgCSOL_TMPdgCSOLARMJ/m2  SYLDt/ha  USLEt/haN_APPkg/haP_APPkg/haNAUTOkg/haPAUTOkg/ha NGRZkg/ha PGRZkg/haNCFRTkg/haPCFRTkg/haNRAINkg/ha NFIXkg/ha F-MNkg/ha A-MNkg/ha A-SNkg/ha F-MPkg/haAO-LPkg/ha L-APkg/ha A-SPkg/ha DNITkg/ha  NUPkg/ha  PUPkg/ha ORGNkg/ha ORGPkg/ha SEDPkg/haNSURQkg/haNLATQkg/ha NO3Lkg/haNO3GWkg/ha SOLPkg/ha P_GWkg/ha    W_STRS  TMP_STRS    N_STRS    P_STRS  BIOMt/ha       LAI   YLDt/ha  BACTPct   BACTLPct WTAB CLIm WTAB SOLm     SNOmm CMUPkg/haCMTOTkg/ha   QTILEmm TNO3kg/ha LNO3kg/ha  GW_Q_Dmm LATQCNTmm TVAPkg/ha
FRSE    1 000010001    1    0    1.68641E-01   576.600     0.000     0.000     0.000   117.337    89.876   160.772   164.686    46.252    27.259     1.363     2.347     0.000     0.000  1008.207  2002.935    68.374    68.374     0.000   351.103    20.801   441.090    73.680    26.316    28.503    24.129    24.875    15.425     2.820     9.188     0.000     0.000     0.000     0.000     0.000     0.000     0.000     0.000     0.000     0.000     0.035     1.668    -1.282     0.004     0.285     0.217     0.283     0.000     0.000     0.000    13.148     1.602     1.237     0.002     0.468     1.411     0.004     0.007     0.000     0.000     0.000     0.000     0.000     0.000     0.000     0.000 .00000E+00 .00000E+00 0.873E-05 0.444E+04 0.000E+00 0.000E+00 0.000E+00 0.000E+00 0.000E+00 0.468E+00     0.813   351.103     0.000
FRSE    2 000010002    1    0    1.20520E-03   576.600     0.000     0.000     0.000   117.337    90.095    92.964    96.124   317.972   205.885    10.294     2.347     0.000     0.000  1086.343  2024.236   165.585   163.000     0.000     0.815   167.581   338.346    84.922    26.316    28.503    24.129    25.523    15.425     0.069     0.169     0.000     0.000     0.000     0.000     0.000     0.000     0.000     0.000     0.000     0.000     0.009     1.150    -0.912     0.002     0.196    -0.289    -0.190     0.000     0.000     0.000     1.322     0.161     0.115     0.003     0.001     1.797     0.052     0.039     0.000     0.000     0.000     0.000     0.000     0.000     0.000     0.000 .00000E+00 .00000E+00 0.334E-04 0.404E+04 0.000E+00 0.000E+00 0.000E+00 0.000E+00 0.000E+00 0.766E-03     6.950     0.815     0.000
FRSE    3 000010003    1    0    1.17196E+00   576.600     0.000     0.000     0.000   117.337    87.352    91.229    96.085     6.692     3.149     0.157     2.347     0.000     0.000   886.414  2000.256   161.736   161.736     0.000   300.901     0.000   462.699    84.603    26.316    28.503    24.129    25.505    15.425    19.063    12.520     0.000     0.000     0.000     0.000     0.000     0.000     0.000     0.000     0.000     0.000     0.008     1.092    -0.815     0.002     0.186     0.183     0.297     0.000     0.000     0.000    29.641     3.620     2.919     0.005     0.418     0.129     0.000     0.008     0.000     0.000     0.000     0.000     0.000     0.000     0.000     0.000 .00000E+00 .00000E+00 0.240E-04 0.404E+04 0.000E+00 0.000E+00 0.000E+00 0.000E+00 0.000E+00 0.418E+00     0.062   300.901     0.000
AGRL    4 000010004    1    0    1.15390E-02   576.600     0.000     0.000     0.000   117.337    87.583   160.532   164.716    18.799     9.894     0.495     2.347     0.000     0.000  1003.264  2000.935   233.129   233.129     0.000   220.712     2.701   456.785    89.567    26.316    28.503    24.129    24.712    15.425     8.611     6.922     0.000     0.000     0.000     0.000     0.000     0.000     0.000     0.000     0.000     0.000     0.403     1.706    -1.142     0.111     0.292     0.494     0.528     0.000     0.000     0.000    19.315     2.513     1.641     0.052     0.806     0.822     0.000     0.034     0.000     0.000     0.000     0.000     0.000     0.000     0.000     0.000 .00000E+00 .00000E+00 0.117E-03 0.444E+04 0.000E+00 0.000E+00 0.000E+00 0.000E+00 0.000E+00 0.806E+00     0.243   220.712     0.000
AGRL    5 000010005    1    0    1.18468E-02   576.600     0.000     0.000     0.000   117.337    84.278    86.185    95.462     0.000     0.000     0.000     2.347     0.000     0.000   768.618  2000.008   281.436   281.436     0.000   188.000     0.000   469.436    92.153    26.316    28.503    24.129    25.387    15.425    18.052    15.519     0.000     0.000     0.000     0.000     0.000     0.000     0.000     0.000     0.000     0.000     0.276     1.139    -0.675     0.058     0.195     0.354     0.380     0.000     0.000     0.000    26.689     3.349     1.877     0.059     0.778     0.000     0.000     0.025     0.000     0.000     0.000     0.000     0.000     0.000     0.000     0.000 .00000E+00 .00000E+00 0.211E-03 0.404E+04 0.000E+00 0.000E+00 0.000E+00 0.000E+00 0.000E+00 0.778E+00     0.000   188.000     0.000
SWCH    6 000020001    2    0    1.30781E-03   576.600     0.000     0.000     0.000   117.342    83.604   161.781   164.789   246.717   162.731     8.137     2.347     0.000     0.000  1081.391  2018.013    91.485    91.485     0.000   141.449   134.174   372.194    77.202    26.316    28.503    24.129    24.433    15.425     0.000     0.022     0.000     0.000     0.000     0.000     0.000     0.000     0.000     0.000     0.000     0.000     4.553     1.876    -0.967     1.183     0.322     1.124     0.984     0.000     0.000     0.000     0.000     0.000     0.000     0.053     0.625     5.161     0.075     0.044     0.000     0.000     0.000     0.000     0.000     0.000     0.000     0.000 .00000E+00 .00000E+00 0.895E-05 0.444E+04 0.000E+00 0.000E+00 0.000E+00 0.000E+00 0.000E+00 0.625E+00     5.086   141.449     0.000
FRSE    7 000020002    2    0    1.10260E-03   576.600     0.000     0.000     0.000   117.342    91.398   161.656   165.187   410.751   264.794    13.240     2.347     0.000     0.000  1122.722  2031.325    69.051    68.527     0.000     1.521   217.077   296.121    73.817    26.316    28.503    24.129    24.887    15.425     0.019     0.180     0.000     0.000     0.000     0.000     0.000     0.000     0.000     0.000     0.000     0.000     0.016     1.705    -1.345     0.004     0.291    -0.170    -0.081     0.000     0.000     0.000     0.259     0.032     0.021     0.001     0.001     2.988     0.105     0.019     0.000     0.000     0.000     0.000     0.000     0.000     0.000     0.000 .00000E+00 .00000E+00 0.926E-05 0.444E+04 0.000E+00 0.000E+00 0.000E+00 0.000E+00 0.000E+00 0.139E-02     8.996     1.521     0.000
FRSE    8 000020003    2    0    1.27395E-01   576.600     0.000     0.000     0.000   117.342    89.784   160.695   164.686    40.368    23.527     1.176     2.347     0.000     0.000  1006.184  2002.509    68.354    68.354     0.000   356.586    17.762   443.392    73.667    26.316    28.503    24.129    24.875    15.425     2.809    10.221     0.000     0.000     0.000     0.000     0.000     0.000     0.000     0.000     0.000     0.000     0.035     1.669    -1.279     0.004     0.285     0.225     0.289     0.000     0.000     0.000    13.159     1.603     1.239     0.002     0.478     1.318     0.003     0.007     0.000     0.000     0.000     0.000     0.000     0.000     0.000     0.000 .00000E+00 .00000E+00 0.869E-05 0.444E+04 0.000E+00 0.000E+00 0.000E+00 0.000E+00 0.000E+00 0.478E+00     0.690   356.586     0.000
FRSE    9 000020004    2    0    1.99217E-01   576.600     0.000     0.000     0.000   117.342    87.353    91.228    96.086     6.685     3.145     0.157     2.347     0.000     0.000   886.294  2000.256   161.735   161.735     0.000   300.907     0.000   462.703    84.603    26.316    28.503    24.129    25.505    15.425    17.921    12.569     0.000     0.000     0.000     0.000     0.000     0.000     0.000     0.000     0.000     0.000     0.008     1.093    -0.815     0.002     0.187     0.183     0.297     0.000     0.000     0.000    29.156     3.561     2.870     0.005     0.419     0.129     0.000     0.008     0.000     0.000     0.000     0.000     0.000     0.000     0.000     0.000 .00000E+00 .00000E+00 0.240E-04 0.404E+04 0.000E+00 0.000E+00 0.000E+00 0.000E+00 0.000E+00 0.419E+00     0.062   300.907     0.000
FRSD   10 000020005    2    0    1.23599E-02   576.600     0.000     0.000     0.000   117.342    82.647    90.676    96.154     3.514     1.155     0.058     2.347     0.000     0.000   801.658  2000.067   224.471   224.471     0.000   246.775     0.000   471.259    89.093    26.316    28.503    24.129    25.313    15.425     0.237     0.309     0.000     0.000     0.000     0.000     0.000     0.000     0.000     0.000     0.000     0.000     0.336     1.119    -0.775     0.290     0.191     0.493     0.580     0.000     0.000     0.000     1.360     0.178     0.145     0.038     0.368     0.011     0.000     0.045     0.000     0.000     0.000     0.000     0.000     0.000     0.000     0.000 .00000E+00 .00000E+00 0.325E-04 0.404E+04 0.000E+00 0.000E+00 0.000E+00 0.000E+00 0.000E+00 0.368E+00     0.012   246.775     0.000
FRSD   11 000020006    2    0    1.71821E-03   576.600     0.000     0.000     0.000   117.342    83.658   161.515   164.782    53.974    31.666     1.583     2.347     0.000     0.000  1011.588  2002.894   234.063   234.063     0.000   192.904    22.504   450.225    89.628    26.316    28.503    24.129    24.454    15.425     0.013     0.025     0.000     0.000     0.000     0.000     0.000     0.000     0.000     0.000     0.000     0.000     0.530     1.700    -1.250     0.377     0.291     0.582     0.558     0.000     0.000     0.000     0.153     0.020     0.014     0.048     0.363     0.707     0.002     0.084     0.000     0.000     0.000     0.000     0.000     0.000     0.000     0.000 .00000E+00 .00000E+00 0.832E-04 0.444E+04 0.000E+00 0.000E+00 0.000E+00 0.000E+00 0.000E+00 0.363E+00     0.753   192.904     0.000
FRSD   12 000020007    2    0    1.37963E-02   576.600     0.000     0.000     0.000   117.342    82.635    90.679    96.154     4.099     1.347     0.067     2.347     0.000     0.000   809.313  2000.080   224.479   224.479     0.000   246.239     0.000   470.732    89.094    26.316    28.503    24.129    25.312    15.425     0.164     0.202     0.000     0.000     0.000     0.000     0.000     0.000     0.000     0.000     0.000     0.000     0.338     1.124    -0.777     0.291     0.192     0.492     0.570     0.000     0.000     0.000     1.038     0.135     0.109     0.038     0.369     0.013     0.000     0.046     0.000     0.000     0.000     0.000     0.000     0.000     0.000     0.000 .00000E+00 .00000E+00 0.325E-04 0.404E+04 0.000E+00 0.000E+00 0.000E+00 0.000E+00 0.000E+00 0.369E+00     0.014   246.239     0.000
FRSD   13 000020008    2    0    1.92342E-03   576.600     0.000     0.000     0.000   117.342    82.624    90.682    96.154     4.241     1.394     0.070     2.347     0.000     0.000   811.147  2000.086   224.487   224.487     0.000   246.116     0.000   470.618    89.094    26.316    28.503    24.129    25.312    15.425     0.120     0.178     0.000     0.000     0.000     0.000     0.000     0.000     0.000     0.000     0.000     0.000     0.340     1.128    -0.779     0.292     0.193     0.491     0.555     0.000     0.000     0.000     0.838     0.109     0.087     0.039     0.371     0.014     0.000     0.048     0.000     0.000     0.000     0.000     0.000     0.000     0.000     0.000 .00000E+00 .00000E+00 0.324E-04 0.404E+04 0.000E+00 0.000E+00 0.000E+00 0.000E+00 0.000E+00 0.371E+00     0.015   246.116     0.000
FRSE   14 000030001    3    0    1.35808E-01   576.600     0.000     0.000     0.000   117.360    89.932   160.808   164.688    49.626    29.402     1.470     2.347     0.000     0.000  1009.580  2003.192    68.382    68.382     0.000   347.915    22.532   439.713    73.685    26.316    28.503    24.129    24.875    15.425     2.459     4.356     0.000     0.000     0.000     0.000     0.000     0.000     0.000     0.000     0.000     0.000     0.035     1.669    -1.285     0.004     0.285     0.211     0.274     0.000     0.000     0.000    12.592     1.535     1.181     0.002     0.463     1.463     0.004     0.007     0.000     0.000     0.000     0.000     0.000     0.000     0.000     0.000 .00000E+00 .00000E+00 0.863E-05 0.444E+04 0.000E+00 0.000E+00 0.000E+00 0.000E+00 0.000E+00 0.463E+00     0.884   347.915     0.000
FRSE   15 000030002    3    0    1.91522E-01   576.600     0.000     0.000     0.000   117.360    87.356    91.227    96.087     7.104     3.343     0.167     2.347     0.000     0.000   893.804  2000.273   161.731   161.731     0.000   300.505     0.000   462.302    84.603    26.316    28.503    24.129    25.505    15.425    14.289    10.121     0.000     0.000     0.000     0.000     0.000     0.000     0.000     0.000     0.000     0.000     0.009     1.094    -0.816     0.002     0.187     0.182     0.297     0.000     0.000     0.000    27.450     3.353     2.695     0.005     0.417     0.138     0.000     0.009     0.000     0.000     0.000     0.000     0.000     0.000     0.000     0.000 .00000E+00 .00000E+00 0.238E-04 0.404E+04 0.000E+00 0.000E+00 0.000E+00 0.000E+00 0.000E+00 0.417E+00     0.066   300.505     0.000
FRSE   16 000040001    4    0    1.15596E-01   576.600     0.000     0.000     0.000   117.405    89.799   160.690   164.691    40.360    23.526     1.176     2.348     0.000     0.000  1006.195  2002.510    68.349    68.349     0.000   356.563    17.766   443.369    73.667    26.316    28.503    24.129    24.875    15.425     2.626    10.221     0.000     0.000     0.000     0.000     0.000     0.000     0.000     0.000     0.000     0.000     0.035     1.670    -1.280     0.004     0.285     0.224     0.286     0.000     0.000     0.000    12.886     1.570     1.212     0.002     0.479     1.318     0.003     0.007     0.000     0.000     0.000     0.000     0.000     0.000     0.000     0.000 .00000E+00 .00000E+00 0.837E-05 0.444E+04 0.000E+00 0.000E+00 0.000E+00 0.000E+00 0.000E+00 0.479E+00     0.691   356.563     0.000
FRSE   17 000040002    4    0    1.82595E-01   576.600     0.000     0.000     0.000   117.405    87.366    91.223    96.091     5.977     2.813     0.141     2.348     0.000     0.000   872.775  2000.230   161.720   161.720     0.000   301.561     0.000   463.336    84.602    26.316    28.503    24.129    25.505    15.425    24.671    17.683     0.000     0.000     0.000     0.000     0.000     0.000     0.000     0.000     0.000     0.000     0.006     1.090    -0.814     0.001     0.186     0.184     0.295     0.000     0.000     0.000    31.740     3.875     3.132     0.004     0.421     0.115     0.000     0.007     0.000     0.000     0.000     0.000     0.000     0.000     0.000     0.000 .00000E+00 .00000E+00 0.234E-04 0.404E+04 0.000E+00 0.000E+00 0.000E+00 0.000E+00 0.000E+00 0.421E+00     0.056   301.561     0.000
BARR   18 000040003    4    0    1.20520E-03   576.600     0.000     0.000     0.000   117.405    81.772    54.758    62.591     0.000     0.000     0.000     2.348     0.000     0.000   755.714  2000.000   346.868   346.868     0.000   130.465     0.000   477.334    94.747    26.316    28.503    24.129    25.297    15.425    74.083    72.100     0.000     0.000     0.000     0.000     0.000     0.000     0.000     0.000     0.000     0.000     0.000     0.985    -0.771     0.000     0.168     0.200     0.273     0.000     0.000     0.000    45.013     5.489     4.609     0.034     0.439     0.000     0.000     0.013     0.000     0.000     0.000     0.000     0.000     0.000     0.000     0.000 .00000E+00 .00000E+00 0.162E-02 0.404E+04 0.000E+00 0.000E+00 0.000E+00 0.000E+00 0.000E+00 0.439E+00     0.000   130.465     0.000
FRSD   19 000040004    4    0    1.91008E-01   576.600     0.000     0.000     0.000   117.405    82.670    90.674    96.158     3.621     1.191     0.060     2.348     0.000     0.000   803.262  2000.075   224.466   224.466     0.000   246.652     0.000   471.131    89.093    26.316    28.503    24.129    25.313    15.425     0.345     0.291     0.000     0.000     0.000     0.000     0.000     0.000     0.000     0.000     0.000     0.000     0.333     1.116    -0.774     0.288     0.191     0.493     0.588     0.000     0.000     0.000     1.825     0.240     0.196     0.037     0.366     0.012     0.000     0.044     0.000     0.000     0.000     0.000     0.000     0.000     0.000     0.000 .00000E+00 .00000E+00 0.319E-04 0.404E+04 0.000E+00 0.000E+00 0.000E+00 0.000E+00 0.000E+00 0.366E+00     0.013   246.652     0.000
AGRL   20 000040005    4    0    1.10260E-03   576.600     0.000     0.000     0.000   117.405    88.959   161.464   164.721   187.527   120.110     6.005     2.348     0.000     0.000  1035.796  2014.053   234.082   234.080     0.000    56.780    96.775   391.651    89.625    26.316    28.503    24.129    24.716    15.425     1.251     1.131     0.000     0.000     0.000     0.000     0.000     0.000     0.000     0.000     0.000     0.000     1.251     1.786    -1.064     0.317     0.307     0.527     0.607     0.000     0.000     0.000     9.833     1.319     0.898     0.074     0.250     7.349     0.118     0.065     0.000     0.000     0.000     0.000     0.000     0.000     0.000     0.000 .00000E+00 .00000E+00 0.138E-03 0.444E+04 0.000E+00 0.000E+00 0.000E+00 0.000E+00 0.000E+00 0.250E+00     4.016    56.780     0.000
SWCH   21 000050001    5    0    1.20521E-03   576.600     0.000     0.000     0.000   117.360    80.494    90.009    96.187     4.614     1.394     0.070     2.347     0.000     0.000   820.767  2000.081   175.230   175.230     0.000   292.553     0.000   467.796    85.753    26.316    28.503    24.129    25.237    15.425     0.164     0.200     0.000     0.000     0.000     0.000     0.000     0.000     0.000     0.000     0.000     0.000     4.239     1.332    -0.459     1.183     0.229     1.210     0.990     0.000     0.000     0.000     2.195     0.283     0.159     0.177     1.559     0.030     0.000     0.070     0.000     0.000     0.000     0.000     0.000     0.000     0.000     0.000 .00000E+00 .00000E+00 0.800E-05 0.404E+04 0.000E+00 0.000E+00 0.000E+00 0.000E+00 0.000E+00 0.156E+01     0.013   292.553     0.000
FRSE   22 000050002    5    0    1.23393E-01   576.600     0.000     0.000     0.000   117.360    89.591   160.465   164.688    30.237    17.163     0.858     2.347     0.000     0.000  1002.897  2001.779    68.281    68.281     0.000   365.911    12.562   447.237    73.632    26.316    28.503    24.129    24.874    15.425     3.364    10.406     0.000     0.000     0.000     0.000     0.000     0.000     0.000     0.000     0.000     0.000     0.034     1.668    -1.273     0.004     0.285     0.240     0.306     0.000     0.000     0.000    13.957     1.700     1.321     0.002     0.509     1.200     0.002     0.007     0.000     0.000     0.000     0.000     0.000     0.000     0.000     0.000 .00000E+00 .00000E+00 0.855E-05 0.444E+04 0.000E+00 0.000E+00 0.000E+00 0.000E+00 0.000E+00 0.509E+00     0.483   365.911     0.000
FRSE   23 000050003    5    0    1.10259E-03   576.600     0.000     0.000     0.000   117.360    90.101    92.967    96.133   318.983   206.571    10.329     2.347     0.000     0.000  1086.736  2024.319   165.591   149.800     0.000     0.016   168.154   324.944    84.923    26.316    28.503    24.129    25.523    15.425     0.000     0.104     0.000     0.000     0.000     0.000     0.000     0.000     0.000     0.000     0.000     0.000     0.009     1.152    -0.914     0.002     0.197    -0.293    -0.194     0.000     0.000     0.000     0.000     0.000     0.000     0.003     0.000     1.804     0.052     0.038     0.000     0.000     0.000     0.000     0.000     0.000     0.000     0.000 .00000E+00 .00000E+00 0.346E-04 0.404E+04 0.000E+00 0.000E+00 0.000E+00 0.000E+00 0.000E+00 0.187E-04     6.974     0.016     0.000
FRSE   24 000050004    5    0    1.51301E-03   576.600     0.000     0.000     0.000   117.360    90.098    92.941    96.084   312.316   202.122    10.106     2.347     0.000     0.000  1084.173  2023.781   165.519   164.988     0.000     5.347   164.475   341.630    84.918    26.316    28.503    24.129    25.523    15.425     0.364     0.758     0.000     0.000     0.000     0.000     0.000     0.000     0.000     0.000     0.000     0.000     0.008     1.139    -0.904     0.002     0.194    -0.270    -0.171     0.000     0.000     0.000     5.106     0.623     0.452     0.003     0.005     1.769     0.050     0.033     0.000     0.000     0.000     0.000     0.000     0.000     0.000     0.000 .00000E+00 .00000E+00 0.331E-04 0.404E+04 0.000E+00 0.000E+00 0.000E+00 0.000E+00 0.000E+00 0.492E-02     6.820     5.347     0.000
FRSE   25 000050005    5    0    1.21003E+00   576.600     0.000     0.000     0.000   117.360    87.792    91.727    96.087    13.092     6.888     0.344     2.347     0.000     0.000   993.156  2000.662   163.146   163.146     0.000   293.582     0.000   456.899    84.696    26.316    28.503    24.129    25.507    15.425    10.960    11.778     0.000     0.000     0.000     0.000     0.000     0.000     0.000     0.000     0.000     0.000     0.011     1.094    -0.826     0.002     0.187     0.167     0.287     0.000     0.000     0.000    25.054     3.061     2.453     0.004     0.432     0.367     0.000     0.009     0.000     0.000     0.000     0.000     0.000     0.000     0.000     0.000 .00000E+00 .00000E+00 0.250E-04 0.404E+04 0.000E+00 0.000E+00 0.000E+00 0.000E+00 0.000E+00 0.432E+00     0.171   293.582     0.000
BARR   26 000050006    5    0    1.41042E-03   576.600     0.000     0.000     0.000   117.360    81.769    54.762    62.590     0.000     0.000     0.000     2.347     0.000     0.000   755.573  2000.000   346.879   346.879     0.000   130.466     0.000   477.345    94.747    26.316    28.503    24.129    25.297    15.425    65.516    58.681     0.000     0.000     0.000     0.000     0.000     0.000     0.000     0.000     0.000     0.000     0.000     0.985    -0.771     0.000     0.168     0.199     0.277     0.000     0.000     0.000    43.594     5.316     4.463     0.034     0.439     0.000     0.000     0.013     0.000     0.000     0.000     0.000     0.000     0.000     0.000     0.000 .00000E+00 .00000E+00 0.162E-02 0.404E+04 0.000E+00 0.000E+00 0.000E+00 0.000E+00 0.000E+00 0.439E+00     0.000   130.466     0.000
FRSD   27 000050007    5    0    1.20931E-01   576.600     0.000     0.000     0.000   117.360    82.649    90.676    96.155     3.985     1.310     0.066     2.347     0.000     0.000   807.897  2000.078   224.473   224.473     0.000   246.333     0.000   470.819    89.093    26.316    28.503    24.129    25.313    15.425     0.222     0.223     0.000     0.000     0.000     0.000     0.000     0.000     0.000     0.000     0.000     0.000     0.336     1.120    -0.775     0.290     0.191     0.492     0.579     0.000     0.000     0.000     1.297     0.170     0.138     0.038     0.368     0.013     0.000     0.045     0.000     0.000     0.000     0.000     0.000     0.000     0.000     0.000 .00000E+00 .00000E+00 0.323E-04 0.404E+04 0.000E+00 0.000E+00 0.000E+00 0.000E+00 0.000E+00 0.368E+00     0.014   246.333     0.000
FRSE   28 000060001    6    0    1.41042E-03   576.600     0.000     0.000     0.000   117.334    91.389   161.622   165.115   407.037   262.314    13.116     2.347     0.000     0.000  1121.270  2031.023    69.006    68.833     0.000     4.562   215.007   297.310    73.812    26.316    28.503    24.129    24.887    15.425     0.073     0.455     0.000     0.000     0.000     0.000     0.000     0.000     0.000     0.000     0.000     0.000     0.016     1.702    -1.343     0.004     0.291    -0.164    -0.077     0.000     0.000     0.000     1.120     0.137     0.091     0.001     0.004     2.978     0.103     0.019     0.000     0.000     0.000     0.000     0.000     0.000     0.000     0.000 .00000E+00 .00000E+00 0.917E-05 0.444E+04 0.000E+00 0.000E+00 0.000E+00 0.000E+00 0.000E+00 0.412E-02     8.909     4.562     0.000
FRSE   29 000060002    6    0    1.58791E-01   576.600     0.000     0.000     0.000   117.334    90.108   160.937   164.686    63.395    38.159     1.908     2.347     0.000     0.000  1011.918  2004.212    68.416    68.416     0.000   334.933    29.726   434.252    73.705    26.316    28.503    24.129    24.876    15.425     2.085     3.481     0.000     0.000     0.000     0.000     0.000     0.000     0.000     0.000     0.000     0.000     0.036     1.671    -1.291     0.004     0.285     0.192     0.253     0.000     0.000     0.000    11.946     1.457     1.114     0.002     0.440     1.651     0.007     0.008     0.000     0.000     0.000     0.000     0.000     0.000     0.000     0.000 .00000E+00 .00000E+00 0.881E-05 0.444E+04 0.000E+00 0.000E+00 0.000E+00 0.000E+00 0.000E+00 0.440E+00     1.177   334.933     0.000
FRSE   30 000060003    6    0    1.10260E-03   576.600     0.000     0.000     0.000   117.334    90.091    92.941    96.082   310.934   201.206    10.060     2.347     0.000     0.000  1083.631  2023.671   165.519   165.077     0.000     6.445   163.713   342.022    84.918    26.316    28.503    24.129    25.523    15.425     0.381     1.123     0.000     0.000     0.000     0.000     0.000     0.000     0.000     0.000     0.000     0.000     0.008     1.139    -0.904     0.002     0.194    -0.269    -0.170     0.000     0.000     0.000     5.244     0.640     0.464     0.003     0.006     1.766     0.050     0.033     0.000     0.000     0.000     0.000     0.000     0.000     0.000     0.000 .00000E+00 .00000E+00 0.334E-04 0.404E+04 0.000E+00 0.000E+00 0.000E+00 0.000E+00 0.000E+00 0.593E-02     6.787     6.445     0.000
FRSE   31 000060004    6    0    1.92445E-01   576.600     0.000     0.000     0.000   117.334    87.351    91.229    96.085     7.034     3.309     0.165     2.347     0.000     0.000   893.003  2000.268   161.736   161.736     0.000   300.578     0.000   462.380    84.603    26.316    28.503    24.129    25.505    15.425    14.558    10.299     0.000     0.000     0.000     0.000     0.000     0.000     0.000     0.000     0.000     0.000     0.009     1.094    -0.816     0.002     0.187     0.182     0.297     0.000     0.000     0.000    27.588     3.370     2.709     0.005     0.418     0.136     0.000     0.008     0.000     0.000     0.000     0.000     0.000     0.000     0.000     0.000 .00000E+00 .00000E+00 0.240E-04 0.404E+04 0.000E+00 0.000E+00 0.000E+00 0.000E+00 0.000E+00 0.418E+00     0.065   300.578     0.000
FRSD   32 000060005    6    0    1.12312E-02   576.600     0.000     0.000     0.000   117.334    82.637    90.678    96.153     3.816     1.254     0.063     2.347     0.000     0.000   805.592  2000.080   224.477   224.477     0.000   246.502     0.000   470.993    89.094    26.316    28.503    24.129    25.312    15.425     0.179     0.253     0.000     0.000     0.000     0.000     0.000     0.000     0.000     0.000     0.000     0.000     0.338     1.123    -0.776     0.291     0.192     0.492     0.573     0.000     0.000     0.000     1.104     0.144     0.116     0.038     0.369     0.012     0.000     0.046     0.000     0.000     0.000     0.000     0.000     0.000     0.000     0.000 .00000E+00 .00000E+00 0.325E-04 0.404E+04 0.000E+00 0.000E+00 0.000E+00 0.000E+00 0.000E+00 0.369E+00     0.013   246.502     0.000
FRSD   33 000060006    6    0    1.10260E-03   576.600     0.000     0.000     0.000   117.334    84.072   161.643   164.779   110.679    68.795     3.440     2.347     0.000     0.000  1031.327  2006.950   234.249   234.249     0.000   135.539    52.480   424.162    89.636    26.316    28.503    24.129    24.460    15.425     0.000     0.017     0.000     0.000     0.000     0.000     0.000     0.000     0.000     0.000     0.000     0.000     0.515     1.695    -1.271     0.366     0.290     0.512     0.500     0.000     0.000     0.000     0.000     0.000     0.000     0.041     0.255     1.425     0.008     0.083     0.000     0.000     0.000     0.000     0.000     0.000     0.000     0.000 .00000E+00 .00000E+00 0.109E-03 0.444E+04 0.000E+00 0.000E+00 0.000E+00 0.000E+00 0.000E+00 0.255E+00     1.893   135.539     0.000
AGRL   34 000060007    6    0    1.10260E-03   576.600     0.000     0.000     0.000   117.334    89.043   161.524   164.716   225.325   145.178     7.259     2.347     0.000     0.000  1050.309  2017.073   234.173   234.081     0.000    21.097   117.438   377.506    89.629    26.316    28.503    24.129    24.716    15.425     1.824     3.958     0.000     0.000     0.000     0.000     0.000     0.000     0.000     0.000     0.000     0.000     1.156     1.767    -1.081     0.299     0.303     0.486     0.575     0.000     0.000     0.000    11.549     1.545     1.078     0.065     0.088     7.781     0.158     0.057     0.000     0.000     0.000     0.000     0.000     0.000     0.000     0.000 .00000E+00 .00000E+00 0.140E-03 0.444E+04 0.000E+00 0.000E+00 0.000E+00 0.000E+00 0.000E+00 0.880E-01     4.890    21.097     0.000
AGRL   35 000070001    7    0    1.20521E-03   576.600     0.000     0.000     0.000   117.332    88.321   161.208   164.716    56.228    33.830     1.691     2.347     0.000     0.000  1009.048  2003.719   233.722   233.722     0.000   185.267    25.926   445.950    89.609    26.316    28.503    24.129    24.715    15.425     2.583     2.850     0.000     0.000     0.000     0.000     0.000     0.000     0.000     0.000     0.000     0.000     0.903     1.754    -1.086     0.232     0.301     0.576     0.643     0.000     0.000     0.000    13.274     1.761     1.261     0.077     0.816     2.854     0.010     0.054     0.000     0.000     0.000     0.000     0.000     0.000     0.000     0.000 .00000E+00 .00000E+00 0.137E-03 0.444E+04 0.000E+00 0.000E+00 0.000E+00 0.000E+00 0.000E+00 0.816E+00     1.035   185.267     0.000
AGRL   36 000070002    7    0    1.48223E-02   576.600     0.000     0.000     0.000   117.332    85.328    91.154    96.115     4.600     1.885     0.094     2.347     0.000     0.000   822.418  2000.128   225.847   225.847     0.000   243.437     0.000   469.310    89.157    26.316    28.503    24.129    25.415    15.425    17.140    11.673     0.000     0.000     0.000     0.000     0.000     0.000     0.000     0.000     0.000     0.000     0.369     1.156    -0.680     0.064     0.198     0.357     0.384     0.000     0.000     0.000    25.402     3.165     1.804     0.046     0.926     0.087     0.000     0.021     0.000     0.000     0.000     0.000     0.000     0.000     0.000     0.000 .00000E+00 .00000E+00 0.769E-04 0.404E+04 0.000E+00 0.000E+00 0.000E+00 0.000E+00 0.000E+00 0.926E+00     0.026   243.437     0.000
AGRL   37 000070003    7    0    1.61561E-03   576.600     0.000     0.000     0.000   117.332    88.204   161.141   164.716    48.308    28.714     1.436     2.347     0.000     0.000  1007.107  2003.112   233.675   233.675     0.000   192.838    21.770   449.143    89.605    26.316    28.503    24.129    24.715    15.425     3.519     3.463     0.000     0.000     0.000     0.000     0.000     0.000     0.000     0.000     0.000     0.000     0.782     1.742    -1.098     0.202     0.298     0.558     0.619     0.000     0.000     0.000    14.906     1.964     1.395     0.070     0.819     2.415     0.007     0.048     0.000     0.000     0.000     0.000     0.000     0.000     0.000     0.000 .00000E+00 .00000E+00 0.136E-03 0.444E+04 0.000E+00 0.000E+00 0.000E+00 0.000E+00 0.000E+00 0.819E+00     0.861   192.838     0.000
AGRL   38 000070004    7    0    1.12312E-02   576.600     0.000     0.000     0.000   117.332    85.930    91.888    96.115    11.660     6.060     0.303     2.347     0.000     0.000   965.537  2000.580   227.904   227.904     0.000   234.985     0.000   463.040    89.251    26.316    28.503    24.129    25.418    15.425     8.203     7.120     0.000     0.000     0.000     0.000     0.000     0.000     0.000     0.000     0.000     0.000     0.734     1.177    -0.655     0.127     0.201     0.419     0.469     0.000     0.000     0.000    19.881     2.507     1.619     0.073     1.070     0.639     0.000     0.031     0.000     0.000     0.000     0.000     0.000     0.000     0.000     0.000 .00000E+00 .00000E+00 0.871E-04 0.404E+04 0.000E+00 0.000E+00 0.000E+00 0.000E+00 0.000E+00 0.107E+01     0.151   234.985     0.000
AGRL   39 000070005    7    0    1.79004E-02   576.600     0.000     0.000     0.000   117.332    88.800   161.400   164.716   145.214    92.114     4.606     2.347     0.000     0.000  1031.458  2010.681   233.986   233.986     0.000    96.822    73.558   407.407    89.621    26.316    28.503    24.129    24.716    15.425     3.201     2.824     0.000     0.000     0.000     0.000     0.000     0.000     0.000     0.000     0.000     0.000     0.975     1.722    -1.144     0.251     0.295     0.503     0.577     0.000     0.000     0.000    14.112     1.895     1.328     0.058     0.399     6.024     0.070     0.047     0.000     0.000     0.000     0.000     0.000     0.000     0.000     0.000 .00000E+00 .00000E+00 0.140E-03 0.444E+04 0.000E+00 0.000E+00 0.000E+00 0.000E+00 0.000E+00 0.399E+00     3.041    96.822     0.000
SWCH   40 000070006    7    0    1.30781E-03   576.600     0.000     0.000     0.000   117.332    80.491    90.010    96.185     4.235     1.279     0.064     2.347     0.000     0.000   815.349  2000.070   175.231   175.231     0.000   292.910     0.000   468.153    85.753    26.316    28.503    24.129    25.237    15.425     0.216     0.246     0.000     0.000     0.000     0.000     0.000     0.000     0.000     0.000     0.000     0.000     4.230     1.326    -0.461     1.181     0.228     1.210     0.992     0.000     0.000     0.000     2.738     0.354     0.200     0.176     1.556     0.027     0.000     0.069     0.000     0.000     0.000     0.000     0.000     0.000     0.000     0.000 .00000E+00 .00000E+00 0.812E-05 0.404E+04 0.000E+00 0.000E+00 0.000E+00 0.000E+00 0.000E+00 0.156E+01     0.012   292.910     0.000
FRSE   41 000070007    7    0    1.33551E-01   576.600     0.000     0.000     0.000   117.332    89.684   160.579   164.685    35.126    20.232     1.012     2.347     0.000     0.000  1004.460  2002.129    68.318    68.318     0.000   361.436    15.071   445.407    73.649    26.316    28.503    24.129    24.874    15.425     3.181     7.506     0.000     0.000     0.000     0.000     0.000     0.000     0.000     0.000     0.000     0.000     0.034     1.668    -1.276     0.004     0.285     0.233     0.300     0.000     0.000     0.000    13.690     1.667     1.293     0.002     0.491     1.247     0.002     0.007     0.000     0.000     0.000     0.000     0.000     0.000     0.000     0.000 .00000E+00 .00000E+00 0.871E-05 0.444E+04 0.000E+00 0.000E+00 0.000E+00 0.000E+00 0.000E+00 0.491E+00     0.582   361.436     0.000
FRSE   42 000070008    7    0    1.68641E-01   576.600     0.000     0.000     0.000   117.332    87.351    91.229    96.085     6.486     3.051     0.153     2.347     0.000     0.000   882.356  2000.252   161.737   161.737     0.000   301.098     0.000   462.894    84.603    26.316    28.503    24.129    25.505    15.425    19.062    13.969     0.000     0.000     0.000     0.000     0.000     0.000     0.000     0.000     0.000     0.000     0.008     1.092    -0.815     0.002     0.186     0.183     0.297     0.000     0.000     0.000    29.636     3.619     2.919     0.005     0.419     0.125     0.000     0.008     0.000     0.000     0.000     0.000     0.000     0.000     0.000     0.000 .00000E+00 .00000E+00 0.241E-04 0.404E+04 0.000E+00 0.000E+00 0.000E+00 0.000E+00 0.000E+00 0.419E+00     0.060   301.098     0.000
FRSD   43 000070009    7    0    1.20521E-03   576.600     0.000     0.000     0.000   117.332    83.935   161.538   164.778    92.028    56.767     2.838     2.347     0.000     0.000  1025.842  2005.796   138.414   138.414     0.000   248.797    43.471   432.266    82.521    26.316    28.503    24.129    24.464    15.425     0.000     0.021     0.000     0.000     0.000     0.000     0.000     0.000     0.000     0.000     0.000     0.000     0.505     1.704    -1.274     0.359     0.291     0.534     0.512     0.000     0.000     0.000     0.000     0.000     0.000     0.020     0.374     1.125     0.005     0.053     0.000     0.000     0.000     0.000     0.000     0.000     0.000     0.000 .00000E+00 .00000E+00 0.173E-04 0.444E+04 0.000E+00 0.000E+00 0.000E+00 0.000E+00 0.000E+00 0.374E+00     1.584   248.797     0.000
FRSD   44 000070010    7    0    1.13544E-01   576.600     0.000     0.000     0.000   117.332    82.651    90.674    96.153     3.513     1.154     0.058     2.347     0.000     0.000   801.631  2000.067   224.467   224.467     0.000   246.774     0.000   471.253    89.093    26.316    28.503    24.129    25.313    15.425     0.293     0.311     0.000     0.000     0.000     0.000     0.000     0.000     0.000     0.000     0.000     0.000     0.334     1.117    -0.774     0.289     0.191     0.493     0.585     0.000     0.000     0.000     1.604     0.211     0.172     0.037     0.367     0.011     0.000     0.044     0.000     0.000     0.000     0.000     0.000     0.000     0.000     0.000 .00000E+00 .00000E+00 0.326E-04 0.404E+04 0.000E+00 0.000E+00 0.000E+00 0.000E+00 0.000E+00 0.367E+00     0.012   246.774     0.000
BARR   45 000070011    7    0    1.41042E-03   576.600     0.000     0.000     0.000   117.332    82.415    61.198    69.651     0.000     0.000     0.000     2.347     0.000     0.000   755.485  2000.000   359.199   359.199     0.000   116.654     0.000   475.854    95.169    26.316    28.503    24.129    25.356    15.425    29.785    21.405     0.000     0.000     0.000     0.000     0.000     0.000     0.000     0.000     0.000     0.000     0.000     1.006    -0.791     0.000     0.172     0.193     0.301     0.000     0.000     0.000    32.752     3.994     3.350     0.035     0.399     0.000     0.000     0.014     0.000     0.000     0.000     0.000     0.000     0.000     0.000     0.000 .00000E+00 .00000E+00 0.114E-01 0.404E+04 0.000E+00 0.000E+00 0.000E+00 0.000E+00 0.000E+00 0.399E+00     0.000   116.654     0.000
BARR   46 000080001    8    0    1.44119E-02   576.600     0.000     0.000     0.000   117.298    90.112   159.994   164.676    33.842    15.411     0.771     2.346     0.000     0.000  1006.170  2001.297   406.520   406.520     0.000    32.663     3.538   443.030    96.586    26.316    28.503    24.129    24.912    15.425    11.636     5.925     0.000     0.000     0.000     0.000     0.000     0.000     0.000     0.000     0.000     0.000     0.000     1.633    -1.295     0.000     0.279     0.254     0.339     0.000     0.000     0.000    21.262     2.593     2.130     0.039     0.299     5.917     0.003     0.019     0.000     0.000     0.000     0.000     0.000     0.000     0.000     0.000 .00000E+00 .00000E+00 0.576E+00 0.444E+04 0.000E+00 0.000E+00 0.000E+00 0.000E+00 0.000E+00 0.299E+00     0.309    32.663     0.000
BARR   47 000080002    8    0    1.61561E-03   576.600     0.000     0.000     0.000   117.298    87.957   147.916   162.051     0.000     0.006     0.000     2.346     0.000     0.000   831.019  2000.060   397.825   397.825     0.000    62.509     0.000   460.357    96.362    26.316    28.503    24.129    24.865    15.425    10.770     3.867     0.000     0.000     0.000     0.000     0.000     0.000     0.000     0.000     0.000     0.000     0.000     1.606    -1.273     0.000     0.274     0.280     0.361     0.000     0.000     0.000    20.373     2.484     2.043     0.055     0.225     0.000     0.000     0.019     0.000     0.000     0.000     0.000     0.000     0.000     0.000     0.000 .00000E+00 .00000E+00 0.473E+00 0.444E+04 0.000E+00 0.000E+00 0.000E+00 0.000E+00 0.000E+00 0.225E+00     0.022    62.509     0.000
AGRL   48 000080003    8    0    1.15390E-02   576.600     0.000     0.000     0.000   117.298    87.269   159.953   164.713    11.563     5.412     0.271     2.346     0.000     0.000   913.836  2000.427   232.372   232.372     0.000   227.883     0.000   460.355    89.530    26.316    28.503    24.129    24.711    15.425    11.148    18.956     0.000     0.000     0.000     0.000     0.000     0.000     0.000     0.000     0.000     0.000     0.306     1.701    -1.143     0.088     0.291     0.475     0.501     0.000     0.000     0.000    21.145     2.731     1.719     0.048     0.777     0.469     0.000     0.030     0.000     0.000     0.000     0.000     0.000     0.000     0.000     0.000 .00000E+00 .00000E+00 0.112E-03 0.444E+04 0.000E+00 0.000E+00 0.000E+00 0.000E+00 0.000E+00 0.777E+00     0.100   227.883     0.000
AGRL   49 000080004    8    0    1.13338E-02   576.600     0.000     0.000     0.000   117.298    84.273    86.187    95.460     0.000     0.000     0.000     2.346     0.000     0.000   768.434  2000.006   281.441   281.441     0.000   188.006     0.000   469.448    92.153    26.316    28.503    24.129    25.387    15.425    17.909    16.009     0.000     0.000     0.000     0.000     0.000     0.000     0.000     0.000     0.000     0.000     0.279     1.139    -0.675     0.059     0.195     0.354     0.381     0.000     0.000     0.000    26.610     3.340     1.875     0.059     0.779     0.000     0.000     0.025     0.000     0.000     0.000     0.000     0.000     0.000     0.000     0.000 .00000E+00 .00000E+00 0.211E-03 0.404E+04 0.000E+00 0.000E+00 0.000E+00 0.000E+00 0.000E+00 0.779E+00     0.000   188.006     0.000
SWCH   50 000080005    8    0    1.92343E-03   576.600     0.000     0.000     0.000   117.298    83.661   161.833   164.786   287.970   190.479     9.524     2.346     0.000     0.000  1093.180  2021.267    91.541    91.541     0.000   101.405   157.535   356.501    77.209    26.316    28.503    24.129    24.433    15.425     0.009     0.019     0.000     0.000     0.000     0.000     0.000     0.000     0.000     0.000     0.000     0.000     4.570     1.874    -0.971     1.183     0.321     1.097     0.963     0.000     0.000     0.000     0.137     0.018     0.009     0.051     0.446     5.933     0.101     0.044     0.000     0.000     0.000     0.000     0.000     0.000     0.000     0.000 .00000E+00 .00000E+00 0.930E-05 0.444E+04 0.000E+00 0.000E+00 0.000E+00 0.000E+00 0.000E+00 0.446E+00     6.021   101.405     0.000
SWCH   51 000080006    8    0    1.10261E-03   576.600     0.000     0.000     0.000   117.298    80.488    90.012    96.182     5.093     1.538     0.077     2.346     0.000     0.000   827.380  2000.090   175.239   175.239     0.000   292.116     0.000   467.369    85.754    26.316    28.503    24.129    25.237    15.425     0.095     0.144     0.000     0.000     0.000     0.000     0.000     0.000     0.000     0.000     0.000     0.000     4.247     1.342    -0.458     1.185     0.230     1.211     0.987     0.000     0.000     0.000     1.347     0.174     0.096     0.178     1.563     0.033     0.000     0.073     0.000     0.000     0.000     0.000     0.000     0.000     0.000     0.000 .00000E+00 .00000E+00 0.827E-05 0.404E+04 0.000E+00 0.000E+00 0.000E+00 0.000E+00 0.000E+00 0.156E+01     0.014   292.116     0.000
FRSE   52 000080007    8    0    1.10261E-03   576.600     0.000     0.000     0.000   117.298    91.390   161.675   165.221   412.729   266.106    13.305     2.346     0.000     0.000  1123.486  2031.486    69.077    62.304     0.000     0.014   218.159   289.517    73.820    26.316    28.503    24.129    24.887    15.425     0.000     0.086     0.000     0.000     0.000     0.000     0.000     0.000     0.000     0.000     0.000     0.000     0.016     1.706    -1.346     0.004     0.291    -0.172    -0.082     0.000     0.000     0.000     0.000     0.000     0.000     0.001     0.000     2.992     0.105     0.018     0.000     0.000     0.000     0.000     0.000     0.000     0.000     0.000 .00000E+00 .00000E+00 0.109E-04 0.444E+04 0.000E+00 0.000E+00 0.000E+00 0.000E+00 0.000E+00 0.160E-04     9.040     0.014     0.000
FRSE   53 000080008    8    0    1.51302E-03   576.600     0.000     0.000     0.000   117.298    91.379   161.626   165.117   407.296   262.480    13.124     2.346     0.000     0.000  1121.365  2031.042    69.012    68.831     0.000     4.374   215.135   297.254    73.813    26.316    28.503    24.129    24.887    15.425     0.071     0.312     0.000     0.000     0.000     0.000     0.000     0.000     0.000     0.000     0.000     0.000     0.016     1.702    -1.343     0.004     0.291    -0.165    -0.077     0.000     0.000     0.000     1.095     0.134     0.089     0.001     0.004     2.979     0.103     0.019     0.000     0.000     0.000     0.000     0.000     0.000     0.000     0.000 .00000E+00 .00000E+00 0.937E-05 0.444E+04 0.000E+00 0.000E+00 0.000E+00 0.000E+00 0.000E+00 0.395E-02     8.913     4.374     0.000
FRSE   54 000080009    8    0    1.68641E-01   576.600     0.000     0.000     0.000   117.298    89.952   160.838   164.683    51.966    30.885     1.544     2.346     0.000     0.000  1010.316  2003.365    68.392    68.392     0.000   345.741    23.732   438.798    73.690    26.316    28.503    24.129    24.876    15.425     2.554     4.187     0.000     0.000     0.000     0.000     0.000     0.000     0.000     0.000     0.000     0.000     0.035     1.669    -1.286     0.004     0.285     0.208     0.273     0.000     0.000     0.000    12.736     1.553     1.195     0.002     0.458     1.497     0.005     0.007     0.000     0.000     0.000     0.000     0.000     0.000     0.000     0.000 .00000E+00 .00000E+00 0.895E-05 0.444E+04 0.000E+00 0.000E+00 0.000E+00 0.000E+00 0.000E+00 0.458E+00     0.933   345.741     0.000
FRSE   55 000080010    8    0    1.11799E-01   576.600     0.000     0.000     0.000   117.298    87.343    91.232    96.082     7.222     3.397     0.170     2.346     0.000     0.000   894.646  2000.277   161.745   161.745     0.000   300.410     0.000   462.222    84.604    26.316    28.503    24.129    25.505    15.425    10.870     9.837     0.000     0.000     0.000     0.000     0.000     0.000     0.000     0.000     0.000     0.000     0.011     1.097    -0.817     0.002     0.187     0.180     0.296     0.000     0.000     0.000    25.508     3.116     2.496     0.005     0.417     0.141     0.000     0.009     0.000     0.000     0.000     0.000     0.000     0.000     0.000     0.000 .00000E+00 .00000E+00 0.244E-04 0.404E+04 0.000E+00 0.000E+00 0.000E+00 0.000E+00 0.000E+00 0.417E+00     0.067   300.410     0.000
BARR   56 000080011    8    0    1.10261E-03   576.600     0.000     0.000     0.000   117.298    91.141   161.098   164.676    78.720    46.106     2.305     2.346     0.000     0.000  1017.127  2004.840   337.016   337.016     0.000    57.855    34.011   430.205    94.352    26.316    28.503    24.129    24.916    15.425     6.099     6.346     0.000     0.000     0.000     0.000     0.000     0.000     0.000     0.000     0.000     0.000     0.000     1.634    -1.308     0.000     0.279     0.201     0.302     0.000     0.000     0.000    15.249     1.859     1.522     0.012     0.211     4.017     0.019     0.018     0.000     0.000     0.000     0.000     0.000     0.000     0.000     0.000 .00000E+00 .00000E+00 0.144E-02 0.444E+04 0.000E+00 0.000E+00 0.000E+00 0.000E+00 0.000E+00 0.211E+00     1.322    57.855     0.000
SWCH   57 000090001    9    0    1.51301E-03   576.600     0.000     0.000     0.000   117.290    80.487    90.012    96.182     5.377     1.625     0.081     2.346     0.000     0.000   831.315  2000.092   175.240   175.240     0.000   291.851     0.000   467.106    85.754    26.316    28.503    24.129    25.237    15.425     0.114     0.122     0.000     0.000     0.000     0.000     0.000     0.000     0.000     0.000     0.000     0.000     4.245     1.340    -0.459     1.185     0.230     1.210     0.987     0.000     0.000     0.000     1.615     0.208     0.116     0.177     1.561     0.035     0.000     0.072     0.000     0.000     0.000     0.000     0.000     0.000     0.000     0.000 .00000E+00 .00000E+00 0.832E-05 0.404E+04 0.000E+00 0.000E+00 0.000E+00 0.000E+00 0.000E+00 0.156E+01     0.015   291.851     0.000
FRSE   58 000090002    9    0    1.18776E-01   576.600     0.000     0.000     0.000   117.290    90.342   161.029   164.682    87.220    53.417     2.671     2.346     0.000     0.000  1018.909  2006.019    68.458    68.458     0.000   312.278    42.180   424.609    73.720    26.316    28.503    24.129    24.876    15.425     1.289     2.857     0.000     0.000     0.000     0.000     0.000     0.000     0.000     0.000     0.000     0.000     0.032     1.677    -1.302     0.004     0.286     0.157     0.202     0.000     0.000     0.000    10.145     1.238     0.927     0.002     0.402     1.930     0.012     0.010     0.000     0.000     0.000     0.000     0.000     0.000     0.000     0.000 .00000E+00 .00000E+00 0.909E-05 0.444E+04 0.000E+00 0.000E+00 0.000E+00 0.000E+00 0.000E+00 0.402E+00     1.693   312.278     0.000
FRSE   59 000090003    9    0    1.12620E-01   576.600     0.000     0.000     0.000   117.290    87.342    91.233    96.082     7.020     3.302     0.165     2.346     0.000     0.000   892.570  2000.266   161.747   161.747     0.000   300.603     0.000   462.415    84.604    26.316    28.503    24.129    25.505    15.425    11.525    10.347     0.000     0.000     0.000     0.000     0.000     0.000     0.000     0.000     0.000     0.000     0.011     1.097    -0.817     0.002     0.187     0.181     0.297     0.000     0.000     0.000    25.912     3.165     2.537     0.005     0.419     0.135     0.000     0.009     0.000     0.000     0.000     0.000     0.000     0.000     0.000     0.000 .00000E+00 .00000E+00 0.244E-04 0.404E+04 0.000E+00 0.000E+00 0.000E+00 0.000E+00 0.000E+00 0.419E+00     0.065   300.603     0.000
FRSE   60 000090004    9    0    1.18468E-02   576.600     0.000     0.000     0.000   117.290   104.340    32.274    31.730     3.340     1.722     0.086     2.346     0.000     0.000   846.059  2000.201   443.942   443.807     0.000     0.000     0.000   443.865    97.395    26.316    28.503    24.129    25.331    15.425     0.000     0.000     0.000     0.000     0.000     0.000     0.000     0.000     0.000     0.000     0.000     0.000     0.000     0.028    -0.016     0.000     0.005    -0.050    -0.040     0.026     0.000     0.000     0.000     0.000     0.000     0.002     0.000     0.001     0.000     0.072     0.000     0.000     0.000     0.000     0.000     0.000     0.000     0.000 .00000E+00 .00000E+00 0.416E+00 0.404E+04 0.000E+00 0.000E+00 0.000E+00 0.000E+00 0.000E+00 0.000E+00     0.058     0.000     0.000
FRSE   61 000090005    9    0    1.92342E-03   576.600     0.000     0.000     0.000   117.290    91.096   161.314   164.682   180.742   114.432     5.722     2.346     0.000     0.000  1042.028  2013.074   233.904   233.904     0.000    60.394    91.013   389.017    89.616    26.316    28.503    24.129    24.878    15.425     1.592     1.029     0.000     0.000     0.000     0.000     0.000     0.000     0.000     0.000     0.000     0.000     0.022     1.671    -1.312     0.004     0.286     0.076     0.144     0.000     0.000     0.000    13.555     1.655     1.230     0.006     0.100     3.121     0.044     0.031     0.000     0.000     0.000     0.000     0.000     0.000     0.000     0.000 .00000E+00 .00000E+00 0.140E-03 0.444E+04 0.000E+00 0.000E+00 0.000E+00 0.000E+00 0.000E+00 0.100E+00     3.706    60.394     0.000
FRSE   62 000090006    9    0    1.20521E-03   576.600     0.000     0.000     0.000   117.290   104.340    32.274    31.727     3.340     1.722     0.086     2.346     0.000     0.000   846.055  2000.201   443.940   443.940     0.000     0.000     0.000   443.998    97.395    26.316    28.503    24.129    25.331    15.425     0.000     0.000     0.000     0.000     0.000     0.000     0.000     0.000     0.000     0.000     0.000     0.000     0.000     0.028    -0.016     0.000     0.005    -0.050    -0.040     0.026     0.000     0.000     0.000     0.000     0.000     0.002     0.000     0.001     0.000     0.072     0.000     0.000     0.000     0.000     0.000     0.000     0.000     0.000 .00000E+00 .00000E+00 0.418E+00 0.404E+04 0.000E+00 0.000E+00 0.000E+00 0.000E+00 0.000E+00 0.000E+00     0.058     0.000     0.000
FRSE   63 000090007    9    0    1.16416E-02   576.600     0.000     0.000     0.000   117.290    90.467   161.071   164.682    58.433    34.594     1.730     2.346     0.000     0.000  1010.519  2003.666   233.570   233.570     0.000   180.667    26.035   441.280    89.600    26.316    28.503    24.129    24.877    15.425     2.600     1.585     0.000     0.000     0.000     0.000     0.000     0.000     0.000     0.000     0.000     0.000     0.037     1.671    -1.286     0.004     0.285     0.206     0.266     0.000     0.000     0.000    17.517     2.134     1.633     0.010     0.369     1.949     0.007     0.025     0.000     0.000     0.000     0.000     0.000     0.000     0.000     0.000 .00000E+00 .00000E+00 0.134E-03 0.444E+04 0.000E+00 0.000E+00 0.000E+00 0.000E+00 0.000E+00 0.369E+00     1.007   180.667     0.000
FRSE   64 000090008    9    0    1.61561E-03   576.600     0.000     0.000     0.000   117.290   104.340    32.274    31.730     3.340     1.722     0.086     2.346     0.000     0.000   846.059  2000.202   443.942   443.859     0.000     0.000     0.000   443.917    97.395    26.316    28.503    24.129    25.331    15.425     0.000     0.000     0.000     0.000     0.000     0.000     0.000     0.000     0.000     0.000     0.000     0.000     0.000     0.028    -0.016     0.000     0.005    -0.050    -0.040     0.026     0.000     0.000     0.000     0.000     0.000     0.002     0.000     0.001     0.000     0.072     0.000     0.000     0.000     0.000     0.000     0.000     0.000     0.000 .00000E+00 .00000E+00 0.417E+00 0.404E+04 0.000E+00 0.130E+03 0.195E+04 0.000E+00 0.000E+00 0.000E+00     0.058     0.000     0.000
FRSE    1 000010001    1    0    2.68641E-01   144.700     0.000     0.000     0.000   106.762    70.239   148.136   114.452    13.172    27.788     1.389     2.135     0.000     0.000  1006.890  2003.406    19.967    19.967     0.000   103.550    25.581   150.015    71.544    26.895    29.579    24.211    24.968    16.480     1.629     4.278     0.000     0.000     0.000     0.000     0.000     0.000     0.000     0.000     0.000     0.000     0.020     1.432    -1.162     0.002     0.245    -0.558     0.031     0.000     6.884     1.239     4.954     0.604     0.466     0.000     0.119     0.377     0.006     0.002     0.000     0.000     0.034     0.000     0.000     2.439     5.000     0.020 .00000E+00 .00000E+00 0.000E+00 0.444E+04 0.000E+00 0.000E+00 0.000E+00 0.000E+00 0.000E+00 0.119E+00     0.918   103.550     0.000
FRSE    2 000010002    1    0    2.20520E-03   144.700     0.000     0.000     0.000   106.762    60.297    82.150    55.815    82.184   188.196     9.410     2.135     0.000     0.000  1080.078  2026.368    42.260    44.844     0.000     0.569   182.916   235.607    82.652    26.895    29.579    24.211    25.709    16.480     0.030     0.031     0.000     0.000     0.000     0.000     0.000     0.000     0.000     0.000     0.000     0.000     0.006     0.943    -0.826     0.001     0.161    -0.348    -0.219     0.000     1.126     0.362     0.441     0.054     0.038     0.000     0.000     0.319     0.050     0.010     0.000     0.000     0.034    13.762     0.000     0.713     3.227     0.006 .00000E+00 .00000E+00 0.175E-05 0.404E+04 0.000E+00 0.000E+00 0.000E+00 0.000E+00 0.000E+00 0.410E-03     7.278     0.569     0.000
FRSE    3 000010003    1    0    2.17196E+00   144.700     0.000     0.000     0.000   106.762    68.487    80.242    47.595     2.507     4.169     0.208     2.135     0.000     0.000   888.239  2000.372    42.254    42.254     0.000    89.935     0.000   132.282    82.151    26.895    29.579    24.211    25.636    16.480     9.622     9.248     0.000     0.000     0.000     0.000     0.000     0.000     0.000     0.000     0.000     0.000     0.004     0.888    -0.738     0.001     0.152    -0.597     0.040     0.000     5.803     1.218     7.089     0.866     0.701     0.000     0.123     0.065     0.000     0.001     0.000     0.000     0.034     0.304     0.000     2.392     5.000     0.019 .00000E+00 .00000E+00 0.126E-05 0.404E+04 0.000E+00 0.000E+00 0.000E+00 0.000E+00 0.000E+00 0.123E+00     0.093    89.935     0.000
AGRL    4 000010004    1    0    2.15390E-02   144.700     0.000     0.000     0.000   106.762    53.317   152.700   131.012     6.639    11.812     0.591     2.135     0.000     0.000  1003.264  2001.212    57.416    57.416     0.000    68.323     9.086   135.139    89.035    26.895    29.579    24.211    24.928    16.480     3.754     1.630     0.000     0.000   164.710     0.000     0.000     0.000     0.000     0.000     0.000     0.000     0.287     1.486    -1.043     0.079     0.254    -0.815     0.096     0.000    21.320     2.412     4.552     0.590     0.396    16.911     3.585     0.308     0.001     0.003     0.000     0.000     0.098     0.689     0.000     0.612     0.383     0.000 .00000E+00 .00000E+00 0.646E-05 0.444E+04 0.000E+00 0.000E+00 0.000E+00 0.000E+00 0.000E+00 0.359E+01     0.314    68.323     0.000
AGRL    5 000010005    1    0    2.18468E-02   144.700     0.000     0.000     0.000   106.762    50.978    84.885    64.743     0.996     0.512     0.026     2.135     0.000     0.000   766.969  2000.030    71.619    71.619     0.000    57.587     0.000   129.209    91.994    26.895    29.579    24.211    25.628    16.480     7.918     5.844     0.000     0.000   161.255     0.000     0.000     0.000     0.000     0.000     0.000     0.000     0.181     0.978    -0.619     0.038     0.167    -0.969     0.009     0.000    21.190     2.398     5.384     0.674     0.389    19.088     3.374     0.009     0.000     0.001     0.000     0.000     0.098     0.917     0.000     0.608     0.382     0.000 .00000E+00 .00000E+00 0.250E+00 0.404E+04 0.000E+00 0.000E+00 0.000E+00 0.000E+00 0.000E+00 0.337E+01     0.003    57.587     0.000
SWCH    6 000020001    2    0    2.30781E-03   144.700     0.000     0.000     0.000   106.774    74.028   148.455   109.441    62.788   146.876     7.344     2.135     0.000     0.000  1075.040  2019.896    25.262    25.262     0.000    49.540   143.749   224.011    75.193    26.895    29.579    24.211    24.600    16.480     0.005     0.020     0.000     0.000   120.220     0.000     0.000     0.000     0.000     0.000     0.000     0.000     3.222     1.598    -0.874     0.838     0.274    -0.694     0.404     0.000    38.074     3.331     0.065     0.008     0.005     0.005     0.162     1.272     0.105     0.011     0.000     0.000     0.092     3.089     0.000     2.508     5.020     0.003 .00000E+00 .00000E+00 0.000E+00 0.444E+04 0.000E+00 0.000E+00 0.000E+00 0.000E+00 0.000E+00 0.162E+00     5.459    49.540     0.000
FRSE    7 000020002    2    0    2.10260E-03   144.700     0.000     0.000     0.000   106.774    69.598   148.396   115.134   104.666   242.691    12.135     2.135     0.000     0.000  1115.420  2034.058    19.990    20.514     0.000     1.076   235.723   266.713    71.590    26.895    29.579    24.211    25.000    16.480     0.015     0.032     0.000     0.000     0.000     0.000     0.000     0.000     0.000     0.000     0.000     0.000     0.011     1.461    -1.219     0.002     0.250    -0.511    -0.220     0.000     2.463     0.729     0.199     0.024     0.016     0.000     0.001     0.567     0.102     0.006     0.000     0.000     0.034     7.580     0.000     1.428     4.883     0.012 .00000E+00 .00000E+00 0.000E+00 0.444E+04 0.000E+00 0.000E+00 0.000E+00 0.000E+00 0.000E+00 0.768E-03     9.401     1.076     0.000
FRSE    8 000020003    2    0    2.27395E-01   144.700     0.000     0.000     0.000   106.774    70.247   148.133   114.446    11.663    24.315     1.216     2.135     0.000     0.000  1004.919  2002.937    19.966    19.966     0.000   105.259    22.229   148.242    71.544    26.895    29.579    24.211    24.968    16.480     1.623     4.759     0.000     0.000     0.000     0.000     0.000     0.000     0.000     0.000     0.000     0.000     0.020     1.433    -1.160     0.002     0.245    -0.552     0.036     0.000     6.884     1.239     4.961     0.604     0.467     0.000     0.123     0.361     0.005     0.002     0.000     0.000     0.034     0.000     0.000     2.439     5.000     0.020 .00000E+00 .00000E+00 0.000E+00 0.444E+04 0.000E+00 0.000E+00 0.000E+00 0.000E+00 0.000E+00 0.123E+00     0.788   105.259     0.000
FRSE    9 000020004    2    0    2.99217E-01   144.700     0.000     0.000     0.000   106.774    68.495    80.240    47.588     2.504     4.164     0.208     2.135     0.000     0.000   888.114  2000.371    42.254    42.254     0.000    89.937     0.000   132.284    82.151    26.895    29.579    24.211    25.636    16.480     9.047     9.284     0.000     0.000     0.000     0.000     0.000     0.000     0.000     0.000     0.000     0.000     0.004     0.888    -0.738     0.001     0.152    -0.598     0.040     0.000     5.805     1.218     7.095     0.866     0.701     0.000     0.123     0.065     0.000     0.001     0.000     0.000     0.034     0.303     0.000     2.392     5.000     0.019 .00000E+00 .00000E+00 0.125E-05 0.404E+04 0.000E+00 0.000E+00 0.000E+00 0.000E+00 0.000E+00 0.123E+00     0.093    89.937     0.000
FRSD   10 000020005    2    0    2.23599E-02   144.700     0.000     0.000     0.000   106.774    56.491    83.246    58.934     1.691     2.296     0.115     2.135     0.000     0.000   801.704  2000.148    56.655    56.655     0.000    75.107     0.000   131.795    87.982    26.895    29.579    24.211    25.471    16.480     0.151     0.170     0.000     0.000     0.000     0.000     0.000     0.000     0.000     0.000     0.000     0.000     0.223     0.936    -0.703     0.193     0.160    -0.170     0.240     0.000     3.563     0.890     0.633     0.082     0.068     0.003     0.095     0.010     0.000     0.009     0.000     0.000     0.087     3.841     0.000     1.452     3.208     0.002 .00000E+00 .00000E+00 0.178E-05 0.404E+04 0.000E+00 0.000E+00 0.000E+00 0.000E+00 0.000E+00 0.949E-01     0.034    75.107     0.000
FRSD   11 000020006    2    0    2.71821E-03   144.700     0.000     0.000     0.000   106.774    59.039   150.944   124.717    15.784    32.357     1.618     2.135     0.000     0.000  1010.746  2003.572    57.417    57.417     0.000    58.770    29.446   146.572    88.903    26.895    29.579    24.211    24.614    16.480     0.008     0.002     0.000     0.000     0.000     0.000     0.000     0.000     0.000     0.000     0.000     0.000     0.355     1.474    -1.133     0.253     0.252    -0.226     0.199     0.000     5.973     1.144     0.067     0.008     0.006     0.004     0.088     0.238     0.003     0.018     0.000     0.000     0.087     0.466     0.000     1.906     3.585     0.003 .00000E+00 .00000E+00 0.460E-05 0.444E+04 0.000E+00 0.000E+00 0.000E+00 0.000E+00 0.000E+00 0.881E-01     0.939    58.770     0.000
FRSD   12 000020007    2    0    2.37963E-02   144.700     0.000     0.000     0.000   106.774    56.495    83.246    58.928     1.972     2.678     0.134     2.135     0.000     0.000   809.722  2000.175    56.655    56.655     0.000    74.790     0.000   131.484    87.982    26.895    29.579    24.211    25.470    16.480     0.104     0.111     0.000     0.000     0.000     0.000     0.000     0.000     0.000     0.000     0.000     0.000     0.226     0.940    -0.705     0.194     0.161    -0.171     0.233     0.000     3.573     0.892     0.485     0.063     0.051     0.003     0.095     0.012     0.000     0.010     0.000     0.000     0.087     3.816     0.000     1.455     3.211     0.002 .00000E+00 .00000E+00 0.178E-05 0.404E+04 0.000E+00 0.000E+00 0.000E+00 0.000E+00 0.000E+00 0.948E-01     0.039    74.790     0.000
FRSD   13 000020008    2    0    2.92342E-03   144.700     0.000     0.000     0.000   106.774    56.498    83.245    58.922     2.039     2.770     0.139     2.135     0.000     0.000   811.644  2000.184    56.655    56.655     0.000    74.716     0.000   131.411    87.982    26.895    29.579    24.211    25.470    16.480     0.077     0.098     0.000     0.000     0.000     0.000     0.000     0.000     0.000     0.000     0.000     0.000     0.227     0.943    -0.707     0.195     0.161    -0.173     0.225     0.000     3.583     0.893     0.394     0.051     0.041     0.003     0.095     0.013     0.000     0.010     0.000     0.000     0.087     3.792     0.000     1.458     3.214     0.002 .00000E+00 .00000E+00 0.178E-05 0.404E+04 0.000E+00 0.000E+00 0.000E+00 0.000E+00 0.000E+00 0.952E-01     0.041    74.716     0.000
FRSE   14 000030001    3    0    2.35808E-01   144.700     0.000     0.000     0.000   106.814    70.274   148.128   114.424    14.038    29.783     1.489     2.136     0.000     0.000  1008.235  2003.688    19.966    19.966     0.000   102.564    27.502   151.026    71.543    26.895    29.579    24.211    24.968    16.480     1.420     0.808     0.000     0.000     0.000     0.000     0.000     0.000     0.000     0.000     0.000     0.000     0.021     1.433    -1.165     0.002     0.245    -0.561     0.025     0.000     6.884     1.239     4.776     0.582     0.447     0.000     0.117     0.387     0.007     0.002     0.000     0.000     0.034     0.000     0.000     2.439     5.000     0.020 .00000E+00 .00000E+00 0.000E+00 0.444E+04 0.000E+00 0.000E+00 0.000E+00 0.000E+00 0.000E+00 0.117E+00     0.994   102.564     0.000
FRSE   15 000030002    3    0    2.91522E-01   144.700     0.000     0.000     0.000   106.814    68.522    80.234    47.567     2.661     4.425     0.221     2.136     0.000     0.000   895.872  2000.395    42.253    42.253     0.000    89.755     0.000   132.106    82.149    26.895    29.579    24.211    25.636    16.480     7.213     7.477     0.000     0.000     0.000     0.000     0.000     0.000     0.000     0.000     0.000     0.000     0.005     0.890    -0.739     0.001     0.152    -0.599     0.041     0.000     5.814     1.218     7.066     0.863     0.696     0.000     0.122     0.069     0.000     0.001     0.000     0.000     0.034     0.300     0.000     2.393     5.000     0.019 .00000E+00 .00000E+00 0.125E-05 0.404E+04 0.000E+00 0.000E+00 0.000E+00 0.000E+00 0.000E+00 0.122E+00     0.099    89.755     0.000
FRSE   16 000040001    4    0    2.15596E-01   144.700     0.000     0.000     0.000   106.918    70.345   148.109   114.367    11.659    24.311     1.216     2.138     0.000     0.000  1004.924  2002.937    19.965    19.965     0.000   105.250    22.228   148.231    71.540    26.895    29.579    24.211    24.968    16.480     1.518     4.759     0.000     0.000     0.000     0.000     0.000     0.000     0.000     0.000     0.000     0.000     0.021     1.434    -1.160     0.002     0.245    -0.553     0.035     0.000     6.884     1.239     4.875     0.594     0.458     0.000     0.123     0.361     0.005     0.002     0.000     0.000     0.034     0.000     0.000     2.439     5.000     0.020 .00000E+00 .00000E+00 0.000E+00 0.444E+04 0.000E+00 0.000E+00 0.000E+00 0.000E+00 0.000E+00 0.123E+00     0.788   105.250     0.000
FRSE   17 000040002    4    0    2.82595E-01   144.700     0.000     0.000     0.000   106.918    68.592    80.217    47.511     2.238     3.723     0.186     2.138     0.000     0.000   874.173  2000.333    42.250    42.250     0.000    90.229     0.000   132.562    82.145    26.895    29.579    24.211    25.636    16.480    12.456    13.061     0.000     0.000     0.000     0.000     0.000     0.000     0.000     0.000     0.000     0.000     0.003     0.886    -0.737     0.001     0.151    -0.596     0.039     0.000     5.796     1.218     6.985     0.853     0.693     0.000     0.125     0.058     0.000     0.001     0.000     0.000     0.034     0.306     0.000     2.392     5.000     0.019 .00000E+00 .00000E+00 0.122E-05 0.404E+04 0.000E+00 0.000E+00 0.000E+00 0.000E+00 0.000E+00 0.125E+00     0.083    90.229     0.000
BARR   18 000040003    4    0    2.20520E-03   144.700     0.000     0.000     0.000   106.918    39.566    55.887    45.298     0.000     0.000     0.000     2.138     0.000     0.000   753.575  2000.000    86.506    86.506     0.000    39.850     0.000   126.356    94.811    26.895    29.579    24.211    25.586    16.480    27.487    31.337     0.000     0.000     0.000     0.000     0.000     0.000     0.000     0.000     0.000     0.000     0.000     0.872    -0.698     0.000     0.149     0.155     0.166     0.000     0.003     0.000     2.788     0.340     0.294     0.002     0.172     0.000     0.000     0.002     0.000     5.074     0.092     0.000     5.289     0.000     0.000     0.000 .00000E+00 .00000E+00 0.578E+00 0.404E+04 0.000E+00 0.000E+00 0.000E+00 0.000E+00 0.000E+00 0.172E+00     0.000    39.850     0.000
FRSD   19 000040004    4    0    2.91008E-01   144.700     0.000     0.000     0.000   106.918    56.589    83.222    58.856     1.741     2.365     0.118     2.138     0.000     0.000   803.370  2000.159    56.651    56.651     0.000    75.036     0.000   131.722    87.978    26.895    29.579    24.211    25.471    16.480     0.220     0.160     0.000     0.000     0.000     0.000     0.000     0.000     0.000     0.000     0.000     0.000     0.221     0.933    -0.702     0.191     0.160    -0.170     0.245     0.000     3.555     0.888     0.848     0.111     0.092     0.003     0.094     0.011     0.000     0.009     0.000     0.000     0.087     3.864     0.000     1.449     3.206     0.002 .00000E+00 .00000E+00 0.175E-05 0.404E+04 0.000E+00 0.000E+00 0.000E+00 0.000E+00 0.000E+00 0.943E-01     0.035    75.036     0.000
AGRL   20 000040005    4    0    2.10260E-03   144.700     0.000     0.000     0.000   106.918    53.479   152.668   130.869    51.325   112.653     5.633     2.138     0.000     0.000  1032.547  2015.440    57.414    57.416     0.000    22.250   108.131   192.043    89.033    26.895    29.579    24.211    24.931    16.480     0.544     0.328     0.000     0.000   173.179     0.000     0.000     0.000     0.000     0.000     0.000     0.000     1.209     1.548    -0.971     0.307     0.266    -0.686     0.183     0.000    21.332     2.413     2.984     0.399     0.275    17.786     1.070     1.951     0.133     0.010     0.000     0.000     0.098     0.665     0.000     0.612     0.383     0.000 .00000E+00 .00000E+00 0.764E-05 0.444E+04 0.000E+00 0.000E+00 0.000E+00 0.000E+00 0.000E+00 0.107E+01     4.246    22.250     0.000
SWCH   21 000050001    5    0    2.20521E-03   144.700     0.000     0.000     0.000   106.816    72.348    80.593    42.552     2.281     3.115     0.156     2.136     0.000     0.000   821.590  2000.194    46.163    46.163     0.000    87.079     0.000   133.284    83.762    26.895    29.579    24.211    25.394    16.480     0.094     0.062     0.000     0.000   108.275     0.000     0.000     0.000     0.000     0.000     0.000     0.000     2.927     1.081    -0.417     0.818     0.185    -0.617     0.505     0.000    38.623     3.369     0.905     0.116     0.067     0.016     0.364     0.029     0.000     0.017     0.000     0.000     0.092     3.062     0.000     2.544     4.999     0.003 .00000E+00 .00000E+00 0.000E+00 0.404E+04 0.000E+00 0.000E+00 0.000E+00 0.000E+00 0.000E+00 0.364E+00     0.042    87.079     0.000
FRSE   22 000050002    5    0    2.23393E-01   144.700     0.000     0.000     0.000   106.816    70.275   148.125   114.423     9.056    18.336     0.917     2.136     0.000     0.000  1001.709  2002.129    19.966    19.966     0.000   108.211    16.470   145.213    71.542    26.895    29.579    24.211    24.968    16.480     1.945     6.170     0.000     0.000     0.000     0.000     0.000     0.000     0.000     0.000     0.000     0.000     0.020     1.432    -1.154     0.002     0.245    -0.542     0.048     0.000     6.884     1.239     5.215     0.635     0.493     0.000     0.136     0.345     0.003     0.002     0.000     0.000     0.034     0.000     0.000     2.439     5.000     0.020 .00000E+00 .00000E+00 0.000E+00 0.444E+04 0.000E+00 0.000E+00 0.000E+00 0.000E+00 0.000E+00 0.136E+00     0.566   108.211     0.000
FRSE   23 000050003    5    0    2.10259E-03   144.700     0.000     0.000     0.000   106.816    60.341    82.141    55.779    82.449   188.806     9.440     2.136     0.000     0.000  1080.447  2026.457    42.259    58.055     0.000     0.011   183.519   248.887    82.649    26.895    29.579    24.211    25.709    16.480     0.006     0.044     0.000     0.000     0.000     0.000     0.000     0.000     0.000     0.000     0.000     0.000     0.006     0.945    -0.828     0.001     0.161    -0.350    -0.225     0.000     1.127     0.362     0.149     0.018     0.013     0.000     0.000     0.320     0.050     0.014     0.000     0.000     0.034    13.753     0.000     0.714     3.229     0.006 .00000E+00 .00000E+00 0.198E-05 0.404E+04 0.000E+00 0.000E+00 0.000E+00 0.000E+00 0.000E+00 0.307E-05     7.303     0.011     0.000
FRSE   24 000050004    5    0    2.51301E-03   144.700     0.000     0.000     0.000   106.816    60.303    82.141    55.817    80.717   184.835     9.242     2.136     0.000     0.000  1078.018  2025.879    42.252    42.783     0.000     3.345   179.612   232.883    82.650    26.895    29.579    24.211    25.709    16.480     0.162     0.063     0.000     0.000     0.000     0.000     0.000     0.000     0.000     0.000     0.000     0.000     0.005     0.935    -0.819     0.001     0.160    -0.341    -0.196     0.000     1.121     0.360     1.667     0.203     0.147     0.000     0.002     0.313     0.048     0.008     0.000     0.000     0.034    13.784     0.000     0.710     3.221     0.006 .00000E+00 .00000E+00 0.173E-05 0.404E+04 0.000E+00 0.000E+00 0.000E+00 0.000E+00 0.000E+00 0.231E-02     7.143     3.345     0.000
FRSE   25 000050005    5    0    2.21003E+00   144.700     0.000     0.000     0.000   106.816    68.523    80.239    47.567     4.403     8.077     0.404     2.136     0.000     0.000   998.693  2000.847    42.253    42.253     0.000    87.786     0.000   130.258    82.150    26.895    29.579    24.211    25.637    16.480     5.481     3.780     0.000     0.000     0.000     0.000     0.000     0.000     0.000     0.000     0.000     0.000     0.006     0.888    -0.748     0.001     0.152    -0.602     0.033     0.000     5.128     1.191     6.729     0.822     0.660     0.000     0.121     0.142     0.000     0.001     0.000     0.000     0.034     0.685     0.000     2.334     5.000     0.019 .00000E+00 .00000E+00 0.131E-05 0.404E+04 0.000E+00 0.000E+00 0.000E+00 0.000E+00 0.000E+00 0.121E+00     0.218    87.786     0.000
BARR   26 000050006    5    0    2.41042E-03   144.700     0.000     0.000     0.000   106.816    39.540    55.900    45.316     0.000     0.000     0.000     2.136     0.000     0.000   753.437  2000.000    86.509    86.509     0.000    39.856     0.000   126.364    94.812    26.895    29.579    24.211    25.587    16.480    24.307    25.505     0.000     0.000     0.000     0.000     0.000     0.000     0.000     0.000     0.000     0.000     0.000     0.872    -0.698     0.000     0.149     0.155     0.168     0.000     0.003     0.000     3.161     0.385     0.331     0.002     0.172     0.000     0.000     0.002     0.000     5.043     0.092     0.000     5.287     0.000     0.000     0.000 .00000E+00 .00000E+00 0.576E+00 0.404E+04 0.000E+00 0.000E+00 0.000E+00 0.000E+00 0.000E+00 0.172E+00     0.000    39.856     0.000
FRSD   27 000050007    5    0    2.20931E-01   144.700     0.000     0.000     0.000   106.816    56.521    83.239    58.909     1.917     2.604     0.130     2.136     0.000     0.000   808.234  2000.170    56.654    56.654     0.000    74.847     0.000   131.539    87.981    26.895    29.579    24.211    25.470    16.480     0.141     0.123     0.000     0.000     0.000     0.000     0.000     0.000     0.000     0.000     0.000     0.000     0.224     0.937    -0.704     0.193     0.160    -0.171     0.239     0.000     3.565     0.890     0.605     0.079     0.065     0.003     0.095     0.012     0.000     0.009     0.000     0.000     0.087     3.837     0.000     1.453     3.209     0.002 .00000E+00 .00000E+00 0.177E-05 0.404E+04 0.000E+00 0.000E+00 0.000E+00 0.000E+00 0.000E+00 0.945E-01     0.038    74.847     0.000
FRSE   28 000060001    6    0    2.41042E-03   144.700     0.000     0.000     0.000   106.756    69.605   148.382   115.122   103.659   240.452    12.023     2.135     0.000     0.000  1114.034  2033.734    19.987    20.160     0.000     2.895   233.530   265.896    71.588    26.895    29.579    24.211    25.000    16.480     0.041     0.044     0.000     0.000     0.000     0.000     0.000     0.000     0.000     0.000     0.000     0.000     0.011     1.459    -1.217     0.002     0.249    -0.510    -0.214     0.000     2.471     0.731     0.489     0.060     0.039     0.000     0.002     0.565     0.101     0.005     0.000     0.000     0.034     7.549     0.000     1.432     4.888     0.012 .00000E+00 .00000E+00 0.000E+00 0.444E+04 0.000E+00 0.000E+00 0.000E+00 0.000E+00 0.000E+00 0.200E-02     9.311     2.895     0.000
FRSE   29 000060002    6    0    2.58791E-01   144.700     0.000     0.000     0.000   106.756    70.235   148.139   114.455    17.558    37.910     1.895     2.135     0.000     0.000  1010.433  2004.805    19.967    19.967     0.000    98.581    35.364   155.214    71.545    26.895    29.579    24.211    24.968    16.480     1.204     0.646     0.000     0.000     0.000     0.000     0.000     0.000     0.000     0.000     0.000     0.000     0.022     1.434    -1.170     0.002     0.245    -0.574     0.009     0.000     6.884     1.239     4.560     0.556     0.425     0.000     0.108     0.419     0.010     0.002     0.000     0.000     0.034     0.000     0.000     2.439     5.000     0.020 .00000E+00 .00000E+00 0.000E+00 0.444E+04 0.000E+00 0.000E+00 0.000E+00 0.000E+00 0.000E+00 0.108E+00     1.303    98.581     0.000
FRSE   30 000060003    6    0    2.10260E-03   144.700     0.000     0.000     0.000   106.756    60.275    82.148    55.837    80.373   184.021     9.201     2.135     0.000     0.000  1077.509  2025.762    42.253    42.695     0.000     4.031   178.807   232.644    82.652    26.895    29.579    24.211    25.709    16.480     0.171     0.052     0.000     0.000     0.000     0.000     0.000     0.000     0.000     0.000     0.000     0.000     0.005     0.935    -0.819     0.001     0.160    -0.340    -0.195     0.000     1.122     0.361     1.699     0.207     0.150     0.000     0.003     0.313     0.048     0.008     0.000     0.000     0.034    13.773     0.000     0.711     3.223     0.006 .00000E+00 .00000E+00 0.175E-05 0.404E+04 0.000E+00 0.000E+00 0.000E+00 0.000E+00 0.000E+00 0.279E-02     7.110     4.031     0.000
[...]
FRSE   42 000070008    7    0  4.0.68641E-01  3445.525     0.000     0.000     0.000  1685.536   917.178    74.428    90.323    12.237    12.385     0.619    33.711     0.000     0.000   794.024  2000.078   893.684   893.684     0.000  1620.583     0.000  2514.907    80.687    26.585    28.867    24.303    25.567    17.431    40.511    40.949     0.000     0.000     0.000     0.000     0.000     0.000     0.000     0.000     0.000     0.000     1.226    11.558    -9.967     0.286     1.972     0.337     0.711     0.000     7.413     1.731    43.127     5.277     4.212     0.037     1.618     0.126     0.000     0.024     0.000     3.668     0.074     6.864     0.000     7.442     5.000     5.209 .00000E+00 .00000E+00 0.568E-01 0.000E+00 0.000E+00 0.000E+00 0.000E+00 0.000E+00 0.000E+00 0.162E+01     0.640  1620.583     0.000
FRSD   43 000070009    7    0  4.0.20521E-03  3445.525     0.000     0.000     0.000  1685.536  1026.926   148.721   158.843   329.117   325.798    16.290    33.711     0.000     0.000  1012.901  2003.131   856.582   856.582     0.000  1232.415   277.005  2382.645    80.918    26.585    28.867    24.303    24.718    17.431     0.562     1.347     0.000     0.000     0.000     0.000     0.000     0.000     0.000     0.000     0.000     0.000     2.324    19.047   -15.942     0.741     3.254     0.467     0.522     0.000    11.303     2.468     7.271     0.900     0.626     0.043     1.428     4.358     0.035     0.237     0.000     0.000     0.385    13.616     0.000    10.529     4.973     7.371 .00000E+00 .00000E+00 0.614E-01 0.000E+00 0.000E+00 0.000E+00 0.000E+00 0.000E+00 0.000E+00 0.143E+01    16.643  1232.415     0.000
FRSD   44 000070010    7    0  4.0.13544E-01  3445.525     0.000     0.000     0.000  1685.536   925.963    65.975    78.087     3.522     3.523     0.176    16.567     0.000     0.000   750.000  2000.026  1130.873  1130.874     0.000  1386.220     0.000  2517.269    84.737    26.585    28.867    24.303    25.401    17.431    19.126    17.799     0.000     0.000     0.000     0.000     0.000     0.000     0.000     0.000     0.000     0.000     1.627    11.399    -9.627     0.598     1.947     0.338     0.689     0.000     8.091     2.043    46.706     5.841     4.743     0.065     1.304     0.013     0.000     0.064     0.000     2.516     0.385    27.755     0.000     8.709     4.873     6.096 .00000E+00 .00000E+00 0.965E-01 0.000E+00 0.000E+00 0.000E+00 0.000E+00 0.000E+00 0.000E+00 0.130E+01     0.175  1386.220     0.000
BARR   45 000070011    7    0  4.0.41042E-03  3445.525     0.000     0.000     0.000  1685.536   793.813    50.852    55.667     0.000     0.000     0.000     1.958     0.000     0.000   750.000  2000.000  1971.523  1971.523     0.000   679.694     0.000  2651.217    94.364    26.585    28.867    24.303    25.602    17.431   204.075   172.814     0.000     0.000     0.000     0.000     0.000     0.000     0.000     0.000     0.000     0.000     0.017    10.810    -9.640     0.005     1.845     1.838     1.964     0.000     0.017     0.004    49.777     6.065     5.159     0.253     1.378     0.000     0.000     0.021     0.000    31.022     0.888     0.000     6.489     0.001     0.000     0.000 .00000E+00 .00000E+00 0.838E+00 0.000E+00 0.000E+00 0.000E+00 0.000E+00 0.000E+00 0.000E+00 0.138E+01     0.000   679.694     0.000
BARR   46 000080001    8    0  4.0.44119E-02  3445.525     0.000     0.000     0.000  1685.676   930.984   145.211   158.769    69.800    70.677     3.534    33.714     0.000     0.000   987.216  2000.364  2278.531  2278.531     0.000   164.715    35.979  2482.877    96.258    26.585    28.867    24.303    25.183    17.431    80.812    47.396     0.000     0.000     0.000     0.000     0.000     0.000     0.000     0.000     0.000     0.000     0.017    18.207   -15.970     0.005     3.108     2.903     2.833     0.000     0.018     0.005    46.243     5.634     4.679     0.323     0.915    13.151     0.025     0.038     0.000    17.976     0.888     0.000     5.489     0.001     0.000     0.000 .00000E+00 .00000E+00 0.201E+01 0.000E+00 0.000E+00 0.000E+00 0.000E+00 0.000E+00 0.000E+00 0.915E+00     3.652   164.715     0.000
BARR   47 000080002    8    0  4.0.61561E-03  3445.525     0.000     0.000     0.000  1685.676   880.957   132.758   134.446     2.370     2.372     0.119    23.093     0.000     0.000   750.000  2000.033  2221.784  2221.784     0.000   340.573     0.000  2562.489    95.992    26.585    28.867    24.303    25.130    17.431    74.742    61.798     0.000     0.000     0.000     0.000     0.000     0.000     0.000     0.000     0.000     0.000     0.017    17.857   -15.690     0.005     3.049     2.953     2.878     0.000     0.017     0.005    46.155     5.624     4.676     0.420     1.008     1.430     0.000     0.039     0.000    20.235     0.888     0.000     5.550     0.001     0.000     0.000 .00000E+00 .00000E+00 0.171E+01 0.000E+00 0.000E+00 0.000E+00 0.000E+00 0.000E+00 0.000E+00 0.101E+01     0.131   340.573     0.000
AGRL   48 000080003    8    0  4.0.15390E-02  3445.525     0.000     0.000     0.000  1685.676   927.048   138.258   156.563    16.335    16.873     0.844    33.714     0.000     0.000   840.306  2000.082  1280.751  1280.751     0.000  1220.364     0.000  2502.002    87.822    26.585    28.867    24.303    24.494    17.431    52.946    64.252     0.000     0.000   200.370     0.000     0.000     0.000     0.000     0.000     0.000     0.000    31.243    18.529   -14.062     7.791     3.172   -20.003   -18.577     0.000   157.619    29.416    58.825     8.969     5.199    14.035    23.043     0.502     0.000     0.320     0.000     0.564     0.475     5.565     0.000    16.263     2.850     5.657 .00000E+00 .00000E+00 0.156E+00 0.000E+00 0.000E+00 0.000E+00 0.000E+00 0.000E+00 0.000E+00 0.230E+02     0.886  1220.364     0.000
AGRL   49 000080004    8    0  4.0.13338E-02  3445.525     0.000     0.000     0.000  1685.676   865.305    64.059    77.004     0.248     0.248     0.012     5.430     0.000     0.000   750.000  2000.011  1429.981  1429.981     0.000  1149.827     0.000  2579.820    89.376    26.585    28.867    24.303    25.232    17.431    78.721    80.352     0.000     0.000   222.675     0.000     0.000     0.000     0.000     0.000     0.000     0.000    28.011    11.728    -8.312     7.403     2.009   -20.358   -18.403     0.000   148.900    28.391    62.005     9.650     5.262    19.186    27.949     0.002     0.000     0.297     0.000     3.964     0.475     6.792     0.000    15.697     2.841     5.437 .00000E+00 .00000E+00 0.200E+00 0.000E+00 0.000E+00 0.000E+00 0.000E+00 0.000E+00 0.000E+00 0.279E+02     0.012  1149.827     0.000
SWCH   50 000080005    8    0  4.0.92343E-03  3445.525     0.000     0.000     0.000  1685.676  1068.413   145.639   159.639  1214.984  1202.759    60.138    33.714     0.000     0.000  1066.811  2013.539   612.021   612.021     0.000   549.595  1110.232  2333.043    74.540    26.585    28.867    24.303    24.178    17.431     0.056     0.187     0.000     0.000   137.102     0.000     0.000     0.000     0.000     0.000     0.000     0.000    35.197    20.628   -12.047     8.327     3.540   -33.438   -29.039     0.000   153.683    43.190     0.841     0.108     0.053     0.639     4.502    17.812     0.520     0.207     0.000     0.000     0.888    72.652     0.000    39.309     5.556    25.573 .00000E+00 .00000E+00 0.317E-01 0.000E+00 0.000E+00 0.000E+00 0.000E+00 0.000E+00 0.000E+00 0.450E+01    61.195   549.595     0.000
SWCH   51 000080006    8    0  4.0.10261E-03  3445.525     0.000     0.000     0.000  1685.676   951.513    50.616    81.434     4.611     4.612     0.231    23.947     0.000     0.000   750.000  2000.024   757.512   757.512     0.000  1731.242     0.000  2488.985    75.407    26.585    28.867    24.303    24.631    17.431     0.368     1.130     0.000     0.000   146.442     0.000     0.000     0.000     0.000     0.000     0.000     0.000    31.999    12.651    -5.689     7.951     2.174   -30.327   -25.994     0.000   134.508    39.465     4.786     0.618     0.310     1.724    15.746     0.027     0.000     0.202     0.000    26.042     0.888    76.378     0.000    33.439     5.600    21.654 .00000E+00 .00000E+00 0.411E-01 0.000E+00 0.000E+00 0.000E+00 0.000E+00 0.000E+00 0.000E+00 0.157E+02     0.231  1731.242     0.000
FRSE   52 000080007    8    0  4.0.10261E-03  3445.525     0.000     0.000     0.000  1685.676  1036.850   153.187   159.062  1893.558  1876.730    93.836    33.714     0.000     0.000  1065.668  2020.053   515.719   515.041     0.000     0.090  1755.560  2366.319    72.374    26.585    28.867    24.303    24.975    17.431     0.001     0.149     0.000     0.000     0.000     0.000     0.000     0.000     0.000     0.000     0.000     0.000     0.898    19.256   -16.682     0.223     3.287    -0.690    -0.562     0.000     5.335     1.327     0.031     0.004     0.002     0.008     0.000    14.668     0.511     0.146     0.000     0.000     0.074    19.933     0.000     5.712     4.689     3.998 .00000E+00 .00000E+00 0.804E-01 0.000E+00 0.000E+00 0.000E+00 0.000E+00 0.000E+00 0.000E+00 0.897E-04    95.628     0.090     0.000
FRSE   53 000080008    8    0  4.0.51302E-03  3445.525     0.000     0.000     0.000  1685.676  1036.647   153.146   159.058  1866.640  1850.039    92.502    33.714     0.000     0.000  1064.607  2019.760   515.368   515.365     0.000    27.307  1730.044  2366.985    72.367    26.585    28.867    24.303    24.975    17.431     0.220     0.790     0.000     0.000     0.000     0.000     0.000     0.000     0.000     0.000     0.000     0.000     0.898    19.209   -16.643     0.223     3.279    -0.647    -0.510     0.000     5.340     1.329     3.280     0.400     0.255     0.008     0.027    14.530     0.501     0.137     0.000     0.000     0.074    19.889     0.000     5.719     4.695     4.003 .00000E+00 .00000E+00 0.252E-01 0.000E+00 0.000E+00 0.000E+00 0.000E+00 0.000E+00 0.000E+00 0.269E-01    94.270    27.307     0.000
FRSE   54 000080009    8    0  4.0.68641E-01  3445.525     0.000     0.000     0.000  1685.676   992.701   147.864   158.748   185.506   183.430     9.171    33.714     0.000     0.000  1005.169  2001.669   492.888   492.888     0.000  1772.747   141.016  2416.094    71.427    26.585    28.867    24.303    24.872    17.431     5.913    11.182     0.000     0.000     0.000     0.000     0.000     0.000     0.000     0.000     0.000     0.000     1.942    18.561   -15.891     0.322     3.169     0.929     1.073     0.000    10.816     1.943    28.905     3.526     2.663     0.017     1.898     3.377     0.016     0.045     0.000     0.000     0.074     1.017     0.000     8.370     5.000     5.859 .00000E+00 .00000E+00 0.222E-01 0.000E+00 0.000E+00 0.000E+00 0.000E+00 0.000E+00 0.000E+00 0.190E+01     9.443  1772.747     0.000
FRSE   55 000080010    8    0  4.0.11799E-01  3445.525     0.000     0.000     0.000  1685.676   917.123    74.430    90.318    13.632    13.795     0.690    33.714     0.000     0.000   811.333  2000.078   893.705   893.705     0.000  1619.227     0.000  2513.644    80.688    26.585    28.867    24.303    25.567    17.431    23.073    28.772     0.000     0.000     0.000     0.000     0.000     0.000     0.000     0.000     0.000     0.000     1.252    11.616   -10.003     0.291     1.982     0.333     0.702     0.000     7.447     1.734    41.498     5.076     4.008     0.038     1.627     0.142     0.000     0.032     0.000     3.658     0.074     6.750     0.000     7.457     5.000     5.220 .00000E+00 .00000E+00 0.556E-01 0.000E+00 0.000E+00 0.000E+00 0.000E+00 0.000E+00 0.000E+00 0.163E+01     0.712  1619.227     0.000
BARR   56 000080011    8    0  4.0.10261E-03  3445.525     0.000     0.000     0.000  1685.676   972.189   152.379   158.769   266.508   263.981    13.199    33.714     0.000     0.000  1008.129  2002.138  1912.246  1912.246     0.000   293.713   217.458  2437.046    94.015    26.585    28.867    24.303    25.212    17.431    42.995    51.990     0.000     0.000     0.000     0.000     0.000     0.000     0.000     0.000     0.000     0.000     0.018    18.434   -16.128     0.005     3.147     2.638     2.619     0.000     0.018     0.005    45.441     5.536     4.560     0.107     0.991    14.778     0.101     0.044     0.000    17.177     0.888     0.000     5.437     0.001     0.000     0.000 .00000E+00 .00000E+00 0.832E+00 0.000E+00 0.000E+00 0.000E+00 0.000E+00 0.000E+00 0.000E+00 0.991E+00    13.629   293.713     0.000
SWCH   57 000090001    9    0  4.0.51301E-03  3445.525     0.000     0.000     0.000  1685.711   951.491    50.619    81.440     4.870     4.870     0.244    25.156     0.000     0.000   750.000  2000.023   757.549   757.549     0.000  1730.966     0.000  2488.759    75.408    26.585    28.867    24.303    24.631    17.431     0.450     0.962     0.000     0.000   146.457     0.000     0.000     0.000     0.000     0.000     0.000     0.000    31.975    12.630    -5.700     7.946     2.171   -30.330   -25.995     0.000   134.495    39.464     5.893     0.761     0.383     1.724    15.741     0.029     0.000     0.199     0.000    26.034     0.888    76.384     0.000    33.439     5.600    21.654 .00000E+00 .00000E+00 0.408E-01 0.000E+00 0.000E+00 0.000E+00 0.000E+00 0.000E+00 0.000E+00 0.157E+02     0.244  1730.966     0.000
FRSE   58 000090002    9    0  4.0.18776E-01  3445.525     0.000     0.000     0.000  1685.711  1004.959   150.074   158.769   343.150   339.532    16.977    33.714     0.000     0.000  1012.878  2003.335   500.199   500.200     0.000  1595.891   288.793  2402.286    71.816    26.585    28.867    24.303    24.891    17.431     3.143     7.785     0.000     0.000     0.000     0.000     0.000     0.000     0.000     0.000     0.000     0.000     1.537    18.744   -16.104     0.312     3.200     0.732     0.827     0.000     9.170     1.871    23.423     2.859     2.095     0.014     1.739     5.290     0.044     0.066     0.000     0.000     0.074     3.330     0.000     8.054     5.000     5.638 .00000E+00 .00000E+00 0.220E-01 0.000E+00 0.000E+00 0.000E+00 0.000E+00 0.000E+00 0.000E+00 0.174E+01    17.403  1595.891     0.000
FRSE   59 000090003    9    0  4.0.12620E-01  3445.525     0.000     0.000     0.000  1685.711   917.122    74.429    90.317    13.249    13.407     0.670    33.714     0.000     0.000   807.870  2000.075   893.703   893.703     0.000  1619.613     0.000  2514.009    80.688    26.585    28.867    24.303    25.567    17.431    24.471    30.277     0.000     0.000     0.000     0.000     0.000     0.000     0.000     0.000     0.000     0.000     1.249    11.609    -9.999     0.291     1.981     0.334     0.705     0.000     7.438     1.733    41.721     5.103     4.034     0.038     1.629     0.137     0.000     0.031     0.000     3.656     0.074     6.781     0.000     7.453     5.000     5.217 .00000E+00 .00000E+00 0.553E-01 0.000E+00 0.000E+00 0.000E+00 0.000E+00 0.000E+00 0.000E+00 0.163E+01     0.692  1619.613     0.000
FRSE   60 000090004    9    0  4.0.18468E-02  3445.525     0.000     0.000     0.000  1685.711  1106.470    10.203     7.177    11.612    11.628     0.581    33.714     0.000     0.000   756.101  2000.120  2326.251  2326.251     0.000     0.000     0.000  2326.846    88.984    26.585    28.867    24.303    25.112    17.431     0.000     0.000     0.000     0.000     0.000     0.000     0.000     0.000     0.000     0.000     0.000     0.000     0.008     0.201    -0.188     0.016     0.034    -0.338    -0.317     0.154     0.041     0.029     0.000     0.000     0.000     0.012     0.000     0.002     0.000     0.366     0.000    15.756     0.074    63.281     0.026     0.066     1.094     0.046 .00000E+00 .00000E+00 0.250E+01 0.000E+00 0.000E+00 0.000E+00 0.000E+00 0.000E+00 0.000E+00 0.000E+00     0.595     0.000     0.000
FRSE   61 000090005    9    0  4.0.92342E-03  3445.525     0.000     0.000     0.000  1685.711  1028.715   152.100   158.838   731.436   724.563    36.228    33.714     0.000     0.000  1026.948  2007.598  1366.110  1366.110     0.000   318.824   654.553  2376.580    88.915    26.585    28.867    24.303    24.914    17.431     3.489     3.384     0.000     0.000     0.000     0.000     0.000     0.000     0.000     0.000     0.000     0.000     1.351    18.773   -16.208     0.294     3.205     0.398     0.560     0.000     8.104     1.769    25.959     3.171     2.312     0.058     0.485    10.036     0.161     0.159     0.000     0.000     0.074     6.507     0.000     7.612     5.000     5.328 .00000E+00 .00000E+00 0.179E+00 0.000E+00 0.000E+00 0.000E+00 0.000E+00 0.000E+00 0.000E+00 0.485E+00    37.093   318.824     0.000
FRSE   62 000090006    9    0  4.0.20521E-03  3445.525     0.000     0.000     0.000  1685.711  1106.461    10.203     7.177    11.611    11.628     0.581    33.714     0.000     0.000   756.095  2000.120  2326.239  2326.239     0.000     0.004     0.000  2326.837    88.984    26.585    28.867    24.303    25.112    17.431     0.000     0.000     0.000     0.000     0.000     0.000     0.000     0.000     0.000     0.000     0.000     0.000     0.008     0.201    -0.188     0.016     0.034    -0.338    -0.317     0.154     0.041     0.029     0.000     0.000     0.000     0.012     0.000     0.002     0.000     0.366     0.000    15.757     0.074    63.281     0.026     0.066     1.094     0.046 .00000E+00 .00000E+00 0.250E+01 0.000E+00 0.000E+00 0.000E+00 0.000E+00 0.000E+00 0.000E+00 0.000E+00     0.595     0.004     0.000
FRSE   63 000090007    9    0  4.0.16416E-02  3445.525     0.000     0.000     0.000  1685.711  1002.777   148.177   158.779   189.754   187.589     9.379    33.714     0.000     0.000  1006.151  2001.679  1347.268  1347.268     0.000   904.855   144.466  2406.286    88.606    26.585    28.867    24.303    24.873    17.431     5.065     4.230     0.000     0.000     0.000     0.000     0.000     0.000     0.000     0.000     0.000     0.000     2.572    18.607   -15.873     0.326     3.177     0.912     1.055     0.000    11.987     1.968    29.540     3.597     2.710     0.110     1.469     3.971     0.020     0.120     0.000     0.000     0.074     0.201     0.000     8.480     5.000     5.936 .00000E+00 .00000E+00 0.177E+00 0.000E+00 0.000E+00 0.000E+00 0.000E+00 0.000E+00 0.000E+00 0.147E+01     9.696   904.855     0.000
FRSE   64 000090008    9    0  4.0.61561E-03  3445.525     0.000     0.000     0.000  1685.711  1106.469    10.203     7.177    11.612    11.628     0.581    33.714     0.000     0.000   756.101  2000.120  2326.250  2326.250     0.000     0.000     0.000  2326.845    88.984    26.585    28.867    24.303    25.112    17.431     0.000     0.000     0.000     0.000     0.000     0.000     0.000     0.000     0.000     0.000     0.000     0.000     0.008     0.201    -0.188     0.016     0.034    -0.338    -0.317     0.154     0.041     0.029     0.000     0.000     0.000     0.012     0.000     0.002     0.000     0.366     0.000    15.756     0.074    63.281     0.026     0.066     1.094     0.046 .00000E+00 .00000E+00 0.250E+01 0.000E+00 0.000E+00 0.130E+03 0.195E+04 0.000E+00 0.000E+00 0.000E+00     0.595     0.000     0.000
