1
    SWAT Dec 23 2016    VER 2016/Rev 664                                                                 0/ 0/   0      0: 0: 0

    General Input/Output section (file.cio):                                        
    2/7/2020 21:40:12 QSWAT Workflow v1.5.2                                         
                                                                                    


       RCH      GIS   MON     AREAkm2  FLOW_INcms FLOW_OUTcms     EVAPcms    TLOSScms  SED_INtons SED_OUTtons SEDCONCmg/L   ORGN_INkg  ORGN_OUTkg   ORGP_INkg  ORGP_OUTkg    NO3_INkg   NO3_OUTkg    NH4_INkg   NH4_OUTkg    NO2_INkg   NO2_OUTkg   MINP_INkg  MINP_OUTkg   CHLA_INkg  CHLA_OUTkg   CBOD_INkg  CBOD_OUTkg  DISOX_INkg DISOX_OUTkg SOLPST_INmgSOLPST_OUTmg SORPST_INmgSORPST_OUTmg  REACTPSTmg    VOLPSTmg  SETTLPSTmgRESUSP_PSTmgDIFFUSEPSTmgREACBEDPSTmg   BURYPSTmg   BED_PSTmg BACTP_OUTctBACTLP_OUTct  CMETAL#1kg  CMETAL#2kg  CMETAL#3kg     TOT Nkg     TOT Pkg NO3ConcMg/l    WTMPdegc
REACH    1        0     1  0.2442E+00  0.4162E-01  0.4161E-01  0.1150E-04  0.0000E+00  0.3518E+03  0.3518E+03  0.1334E+04  0.6079E+03  0.6073E+03  0.1335E+03  0.1334E+03  0.1081E+02  0.1081E+02  0.0000E+00  0.3464E+00  0.0000E+00  0.0000E+00  0.1947E+00  0.3200E+00  0.5908E+01  0.5713E+01  0.4191E+05  0.4164E+05  0.7086E+03  0.3277E+03  0.0000E+00  0.0000E+00  0.0000E+00  0.0000E+00  0.0000E+00  0.0000E+00  0.0000E+00  0.0000E+00  0.0000E+00  0.0000E+00  0.0000E+00  0.0000E+00  0.0000E+00  0.0000E+00  0.0000E+00  0.0000E+00  0.0000E+00  0.6185E+03  0.1337E+03  0.0000E+00  0.0000E+00
REACH    2        0     1  0.1348E+00  0.2309E-01  0.2309E-01  0.9617E-06  0.0000E+00  0.1856E+03  0.1856E+03  0.1260E+04  0.3261E+03  0.3261E+03  0.7177E+02  0.7176E+02  0.5867E+01  0.5867E+01  0.0000E+00  0.2884E-01  0.0000E+00  0.0000E+00  0.1391E+00  0.1495E+00  0.3210E+01  0.3193E+01  0.2237E+05  0.2235E+05  0.3881E+03  0.1844E+03  0.0000E+00  0.0000E+00  0.0000E+00  0.0000E+00  0.0000E+00  0.0000E+00  0.0000E+00  0.0000E+00  0.0000E+00  0.0000E+00  0.0000E+00  0.0000E+00  0.0000E+00  0.0000E+00  0.0000E+00  0.0000E+00  0.0000E+00  0.3320E+03  0.7191E+02  0.0000E+00  0.0000E+00
REACH    3        0     1  0.1273E+00  0.2168E-01  0.2167E-01  0.3119E-05  0.0000E+00  0.1396E+03  0.1396E+03  0.1012E+04  0.2963E+03  0.2962E+03  0.6508E+02  0.6505E+02  0.5540E+01  0.5539E+01  0.0000E+00  0.6016E-01  0.0000E+00  0.0000E+00  0.1043E+00  0.1260E+00  0.2829E+01  0.2786E+01  0.1766E+05  0.1762E+05  0.3700E+03  0.1765E+03  0.0000E+00  0.0000E+00  0.0000E+00  0.0000E+00  0.0000E+00  0.0000E+00  0.0000E+00  0.0000E+00  0.0000E+00  0.0000E+00  0.0000E+00  0.0000E+00  0.0000E+00  0.0000E+00  0.0000E+00  0.0000E+00  0.0000E+00  0.3018E+03  0.6517E+02  0.0000E+00  0.0000E+00
REACH    4        0     1  0.1895E+00  0.3293E-01  0.3292E-01  0.7478E-05  0.0000E+00  0.2125E+03  0.2125E+03  0.9980E+03  0.2999E+03  0.2997E+03  0.6642E+02  0.6636E+02  0.7953E+01  0.7949E+01  0.0000E+00  0.1208E+00  0.0000E+00  0.0000E+00  0.4703E+00  0.5137E+00  0.3146E+01  0.3064E+01  0.2427E+05  0.2416E+05  0.5092E+03  0.2473E+03  0.0000E+00  0.0000E+00  0.0000E+00  0.0000E+00  0.0000E+00  0.0000E+00  0.0000E+00  0.0000E+00  0.0000E+00  0.0000E+00  0.0000E+00  0.0000E+00  0.0000E+00  0.0000E+00  0.0000E+00  0.0000E+00  0.0000E+00  0.3078E+03  0.6687E+02  0.0000E+00  0.0000E+00
REACH    5        0     1  0.2556E+00  0.4360E-01  0.4359E-01  0.6539E-05  0.0000E+00  0.2412E+03  0.2412E+03  0.8659E+03  0.5637E+03  0.5635E+03  0.1240E+03  0.1239E+03  0.1129E+02  0.1128E+02  0.0000E+00  0.1244E+00  0.0000E+00  0.0000E+00  0.3030E+00  0.3477E+00  0.5891E+01  0.5810E+01  0.3341E+05  0.3334E+05  0.7070E+03  0.3314E+03  0.0000E+00  0.0000E+00  0.0000E+00  0.0000E+00  0.0000E+00  0.0000E+00  0.0000E+00  0.0000E+00  0.0000E+00  0.0000E+00  0.0000E+00  0.0000E+00  0.0000E+00  0.0000E+00  0.0000E+00  0.0000E+00  0.0000E+00  0.5749E+03  0.1243E+03  0.0000E+00  0.0000E+00
REACH    6        0     1  0.5361E+00  0.9106E-01  0.9105E-01  0.1672E-04  0.0000E+00  0.5277E+03  0.5717E+02  0.1864E+03  0.1185E+04  0.1184E+04  0.2604E+03  0.2601E+03  0.2343E+02  0.2342E+02  0.1845E+00  0.5511E+00  0.0000E+00  0.8552E-04  0.6062E+00  0.8085E+00  0.1159E+02  0.1135E+02  0.6944E+05  0.6907E+05  0.9563E+03  0.7205E+03  0.0000E+00  0.0000E+00  0.0000E+00  0.0000E+00  0.0000E+00  0.0000E+00  0.0000E+00  0.0000E+00  0.0000E+00  0.0000E+00  0.0000E+00  0.0000E+00  0.0000E+00  0.0000E+00  0.0000E+00  0.0000E+00  0.0000E+00  0.1208E+04  0.2609E+03  0.0000E+00  0.0000E+00
REACH    7        0     1  0.8570E+00  0.1464E+00  0.1463E+00  0.8704E-05  0.0000E+00  0.4249E+03  0.1285E+03  0.2329E+03  0.1764E+04  0.1764E+04  0.3878E+03  0.3877E+03  0.3767E+02  0.3766E+02  0.6719E+00  0.9629E+00  0.8552E-04  0.4026E-04  0.1518E+01  0.1623E+01  0.1733E+02  0.1721E+02  0.1124E+06  0.1122E+06  0.1336E+04  0.1132E+04  0.0000E+00  0.0000E+00  0.0000E+00  0.0000E+00  0.0000E+00  0.0000E+00  0.0000E+00  0.0000E+00  0.0000E+00  0.0000E+00  0.0000E+00  0.0000E+00  0.0000E+00  0.0000E+00  0.0000E+00  0.0000E+00  0.0000E+00  0.1802E+04  0.3893E+03  0.0000E+00  0.0000E+00
REACH    8        0     1  0.1082E+01  0.1843E+00  0.1843E+00  0.1801E-04  0.0000E+00  0.3544E+03  0.1308E+03  0.1991E+03  0.2225E+04  0.2224E+04  0.4887E+03  0.4884E+03  0.4771E+02  0.4770E+02  0.9917E+00  0.1718E+01  0.4026E-04  0.1993E-03  0.1857E+01  0.2119E+01  0.2160E+02  0.2134E+02  0.1402E+06  0.1397E+06  0.1585E+04  0.1362E+04  0.0000E+00  0.0000E+00  0.0000E+00  0.0000E+00  0.0000E+00  0.0000E+00  0.0000E+00  0.0000E+00  0.0000E+00  0.0000E+00  0.0000E+00  0.0000E+00  0.0000E+00  0.0000E+00  0.0000E+00  0.0000E+00  0.0000E+00  0.2273E+04  0.4905E+03  0.0000E+00  0.0000E+00
REACH    9        0     1  0.1363E+01  0.2320E+00  0.2320E+00  0.6955E-05  0.0000E+00  0.5002E+03  0.1847E+03  0.2139E+03  0.2887E+04  0.2887E+04  0.6339E+03  0.6338E+03  0.5998E+02  0.5998E+02  0.2065E+01  0.2350E+01  0.1993E-03  0.1588E-03  0.2499E+01  0.2602E+01  0.2757E+02  0.2748E+02  0.1837E+06  0.1835E+06  0.1799E+04  0.1736E+04  0.0000E+00  0.0000E+00  0.0000E+00  0.0000E+00  0.0000E+00  0.0000E+00  0.0000E+00  0.0000E+00  0.0000E+00  0.0000E+00  0.0000E+00  0.0000E+00  0.0000E+00  0.0000E+00  0.0000E+00  0.0000E+00  0.0000E+00  0.2949E+04  0.6364E+03  0.0000E+00  0.0000E+00
REACH    1        0     2  0.2442E+00  0.1438E-01  0.1437E-01  0.6823E-05  0.0000E+00  0.1787E+03  0.1787E+03  0.5796E+03  0.1576E+03  0.1575E+03  0.3463E+02  0.3458E+02  0.1028E+02  0.1027E+02  0.0000E+00  0.9927E-01  0.0000E+00  0.0000E+00  0.3289E-01  0.6830E-01  0.2099E+01  0.2031E+01  0.2229E+05  0.2215E+05  0.2092E+03  0.1295E+03  0.0000E+00  0.0000E+00  0.0000E+00  0.0000E+00  0.0000E+00  0.0000E+00  0.0000E+00  0.0000E+00  0.0000E+00  0.0000E+00  0.0000E+00  0.0000E+00  0.0000E+00  0.0000E+00  0.0000E+00  0.0000E+00  0.0000E+00  0.1678E+03  0.3465E+02  0.0000E+00  0.0000E+00
REACH    2        0     2  0.1348E+00  0.7853E-02  0.7852E-02  0.5003E-06  0.0000E+00  0.9429E+02  0.9429E+02  0.5466E+03  0.8436E+02  0.8435E+02  0.1857E+02  0.1857E+02  0.1658E+01  0.1658E+01  0.0000E+00  0.6531E-02  0.0000E+00  0.0000E+00  0.2527E-01  0.2760E-01  0.1072E+01  0.1067E+01  0.1193E+05  0.1192E+05  0.1120E+03  0.6979E+02  0.0000E+00  0.0000E+00  0.0000E+00  0.0000E+00  0.0000E+00  0.0000E+00  0.0000E+00  0.0000E+00  0.0000E+00  0.0000E+00  0.0000E+00  0.0000E+00  0.0000E+00  0.0000E+00  0.0000E+00  0.0000E+00  0.0000E+00  0.8602E+02  0.1860E+02  0.0000E+00  0.0000E+00
REACH    3        0     2  0.1273E+00  0.7501E-02  0.7499E-02  0.1927E-05  0.0000E+00  0.7110E+02  0.7110E+02  0.4420E+03  0.8177E+02  0.8174E+02  0.1795E+02  0.1794E+02  0.1556E+01  0.1556E+01  0.0000E+00  0.1763E-01  0.0000E+00  0.0000E+00  0.1896E-01  0.2515E-01  0.1010E+01  0.9953E+00  0.9441E+04  0.9421E+04  0.1094E+03  0.6862E+02  0.0000E+00  0.0000E+00  0.0000E+00  0.0000E+00  0.0000E+00  0.0000E+00  0.0000E+00  0.0000E+00  0.0000E+00  0.0000E+00  0.0000E+00  0.0000E+00  0.0000E+00  0.0000E+00  0.0000E+00  0.0000E+00  0.0000E+00  0.8331E+02  0.1797E+02  0.0000E+00  0.0000E+00
REACH    4        0     2  0.1895E+00  0.1084E-01  0.1084E-01  0.5083E-05  0.0000E+00  0.1078E+03  0.1078E+03  0.4294E+03  0.7310E+02  0.7304E+02  0.1627E+02  0.1626E+02  0.2314E+01  0.2313E+01  0.0000E+00  0.4130E-01  0.0000E+00  0.0000E+00  0.9297E-01  0.1075E+00  0.1004E+01  0.9726E+00  0.1300E+05  0.1293E+05  0.1417E+03  0.8764E+02  0.0000E+00  0.0000E+00  0.0000E+00  0.0000E+00  0.0000E+00  0.0000E+00  0.0000E+00  0.0000E+00  0.0000E+00  0.0000E+00  0.0000E+00  0.0000E+00  0.0000E+00  0.0000E+00  0.0000E+00  0.0000E+00  0.0000E+00  0.7540E+02  0.1636E+02  0.0000E+00  0.0000E+00
REACH    5        0     2  0.2556E+00  0.1446E-01  0.1445E-01  0.5826E-05  0.0000E+00  0.1210E+03  0.1210E+03  0.3686E+03  0.1550E+03  0.1550E+03  0.3412E+02  0.3410E+02  0.3088E+01  0.3087E+01  0.0000E+00  0.3391E-01  0.0000E+00  0.0000E+00  0.5544E-01  0.6719E-01  0.2113E+01  0.2087E+01  0.1749E+05  0.1745E+05  0.1982E+03  0.1196E+03  0.0000E+00  0.0000E+00  0.0000E+00  0.0000E+00  0.0000E+00  0.0000E+00  0.0000E+00  0.0000E+00  0.0000E+00  0.0000E+00  0.0000E+00  0.0000E+00  0.0000E+00  0.0000E+00  0.0000E+00  0.0000E+00  0.0000E+00  0.1581E+03  0.3417E+02  0.0000E+00  0.0000E+00
REACH    6        0     2  0.5361E+00  0.3124E-01  0.3123E-01  0.1039E-04  0.0000E+00  0.2671E+03  0.1454E+02  0.9406E+02  0.3290E+03  0.3288E+03  0.7226E+02  0.7219E+02  0.6671E+01  0.6669E+01  0.5154E-01  0.1532E+00  0.0000E+00  0.1496E-04  0.1180E+00  0.1742E+00  0.4177E+01  0.4097E+01  0.3677E+05  0.3660E+05  0.3275E+03  0.2773E+03  0.0000E+00  0.0000E+00  0.0000E+00  0.0000E+00  0.0000E+00  0.0000E+00  0.0000E+00  0.0000E+00  0.0000E+00  0.0000E+00  0.0000E+00  0.0000E+00  0.0000E+00  0.0000E+00  0.0000E+00  0.0000E+00  0.0000E+00  0.3356E+03  0.7236E+02  0.0000E+00  0.0000E+00
REACH    7        0     2  0.8570E+00  0.4989E-01  0.4988E-01  0.7951E-05  0.0000E+00  0.2006E+03  0.2719E+02  0.1084E+03  0.4755E+03  0.4754E+03  0.1046E+03  0.1046E+03  0.4069E+02  0.4069E+02  0.1945E+00  0.3097E+00  0.1496E-04  0.3928E-04  0.3139E+00  0.3549E+00  0.6664E+01  0.6608E+01  0.5957E+05  0.5943E+05  0.4760E+03  0.4334E+03  0.0000E+00  0.0000E+00  0.0000E+00  0.0000E+00  0.0000E+00  0.0000E+00  0.0000E+00  0.0000E+00  0.0000E+00  0.0000E+00  0.0000E+00  0.0000E+00  0.0000E+00  0.0000E+00  0.0000E+00  0.0000E+00  0.0000E+00  0.5164E+03  0.1049E+03  0.0000E+00  0.0000E+00
REACH    8        0     2  0.1082E+01  0.6348E-01  0.6347E-01  0.1304E-04  0.0000E+00  0.1419E+03  0.2997E+02  0.1046E+03  0.6044E+03  0.6041E+03  0.1328E+03  0.1327E+03  0.4962E+02  0.4961E+02  0.3162E+00  0.5586E+00  0.3928E-04  0.1485E-03  0.4001E+00  0.4867E+00  0.8217E+01  0.8115E+01  0.7410E+05  0.7381E+05  0.5942E+03  0.5396E+03  0.0000E+00  0.0000E+00  0.0000E+00  0.0000E+00  0.0000E+00  0.0000E+00  0.0000E+00  0.0000E+00  0.0000E+00  0.0000E+00  0.0000E+00  0.0000E+00  0.0000E+00  0.0000E+00  0.0000E+00  0.0000E+00  0.0000E+00  0.6543E+03  0.1332E+03  0.0000E+00  0.0000E+00
REACH    9        0     2  0.1363E+01  0.8021E-01  0.8020E-01  0.5896E-05  0.0000E+00  0.2177E+03  0.3965E+02  0.1116E+03  0.7792E+03  0.7790E+03  0.1711E+03  0.1710E+03  0.6029E+02  0.6029E+02  0.6578E+00  0.7732E+00  0.1485E-03  0.9675E-04  0.5693E+00  0.6105E+00  0.1035E+02  0.1030E+02  0.9725E+05  0.9710E+05  0.7065E+03  0.6928E+03  0.0000E+00  0.0000E+00  0.0000E+00  0.0000E+00  0.0000E+00  0.0000E+00  0.0000E+00  0.0000E+00  0.0000E+00  0.0000E+00  0.0000E+00  0.0000E+00  0.0000E+00  0.0000E+00  0.0000E+00  0.0000E+00  0.0000E+00  0.8401E+03  0.1717E+03  0.0000E+00  0.0000E+00
REACH    1        0     3  0.2442E+00  0.3971E-02  0.3965E-02  0.5338E-05  0.0000E+00  0.4722E-01  0.4722E-01  0.1115E+01  0.4120E-01  0.4115E-01  0.8338E-02  0.8323E-02  0.1261E+01  0.1259E+01  0.0000E+00  0.2526E-02  0.0000E+00  0.0000E+00  0.5055E-05  0.1131E-04  0.1004E-03  0.8919E-04  0.2658E+01  0.2639E+01  0.8765E+02  0.8110E+02  0.0000E+00  0.0000E+00  0.0000E+00  0.0000E+00  0.0000E+00  0.0000E+00  0.0000E+00  0.0000E+00  0.0000E+00  0.0000E+00  0.0000E+00  0.0000E+00  0.0000E+00  0.0000E+00  0.0000E+00  0.0000E+00  0.0000E+00  0.1303E+01  0.8334E-02  0.0000E+00  0.0000E+00
REACH    2        0     3  0.1348E+00  0.2137E-02  0.2136E-02  0.3840E-06  0.0000E+00  0.2441E-06  0.2441E-06  0.1853E-03  0.4179E-06  0.1341E-07  0.1254E-05  0.5242E-06  0.4201E-01  0.4200E-01  0.0000E+00  0.1711E-03  0.0000E+00  0.0000E+00  0.7634E-04  0.7858E-04  0.3465E-07  0.0000E+00  0.0000E+00  0.0000E+00  0.4723E+02  0.4596E+02  0.0000E+00  0.0000E+00  0.0000E+00  0.0000E+00  0.0000E+00  0.0000E+00  0.0000E+00  0.0000E+00  0.0000E+00  0.0000E+00  0.0000E+00  0.0000E+00  0.0000E+00  0.0000E+00  0.0000E+00  0.0000E+00  0.0000E+00  0.4217E-01  0.7910E-04  0.0000E+00  0.0000E+00
REACH    3        0     3  0.1273E+00  0.2089E-02  0.2087E-02  0.1459E-05  0.0000E+00  0.6200E-07  0.6200E-07  0.3812E-04  0.3947E-06  0.1248E-07  0.1184E-05  0.4540E-06  0.1371E-01  0.1368E-01  0.0000E+00  0.6605E-03  0.0000E+00  0.0000E+00  0.3951E-06  0.3777E-07  0.4468E-15  0.0000E+00  0.0000E+00  0.0000E+00  0.4616E+02  0.4490E+02  0.0000E+00  0.0000E+00  0.0000E+00  0.0000E+00  0.0000E+00  0.0000E+00  0.0000E+00  0.0000E+00  0.0000E+00  0.0000E+00  0.0000E+00  0.0000E+00  0.0000E+00  0.0000E+00  0.0000E+00  0.0000E+00  0.0000E+00  0.1434E-01  0.4918E-06  0.0000E+00  0.0000E+00
REACH    4        0     3  0.1895E+00  0.2910E-02  0.2906E-02  0.3898E-05  0.0000E+00  0.1525E+00  0.1525E+00  0.4996E+01  0.1208E-01  0.1207E-01  0.2836E-02  0.2831E-02  0.2654E-01  0.2645E-01  0.0000E+00  0.1805E-02  0.0000E+00  0.0000E+00  0.1406E-03  0.1541E-03  0.1287E-03  0.1160E-03  0.1798E+02  0.1787E+02  0.6427E+02  0.4278E+02  0.0000E+00  0.0000E+00  0.0000E+00  0.0000E+00  0.0000E+00  0.0000E+00  0.0000E+00  0.0000E+00  0.0000E+00  0.0000E+00  0.0000E+00  0.0000E+00  0.0000E+00  0.0000E+00  0.0000E+00  0.0000E+00  0.0000E+00  0.4033E-01  0.2985E-02  0.0000E+00  0.0000E+00
REACH    5        0     3  0.2556E+00  0.3762E-02  0.3758E-02  0.4537E-05  0.0000E+00  0.2680E+00  0.2680E+00  0.6855E+01  0.2031E-01  0.2030E-01  0.4690E-02  0.4684E-02  0.8502E-01  0.8481E-01  0.0000E+00  0.2162E-02  0.0000E+00  0.0000E+00  0.4456E-04  0.6312E-04  0.3070E-03  0.2800E-03  0.3278E+02  0.3262E+02  0.8310E+02  0.5014E+02  0.0000E+00  0.0000E+00  0.0000E+00  0.0000E+00  0.0000E+00  0.0000E+00  0.0000E+00  0.0000E+00  0.0000E+00  0.0000E+00  0.0000E+00  0.0000E+00  0.0000E+00  0.0000E+00  0.0000E+00  0.0000E+00  0.0000E+00  0.1073E+00  0.4747E-02  0.0000E+00  0.0000E+00
REACH    6        0     3  0.5361E+00  0.8550E-02  0.8542E-02  0.8185E-05  0.0000E+00  0.2681E+00  0.3032E+01  0.7471E+02  0.2085E-01  0.2083E-01  0.4809E-02  0.4801E-02  0.1320E+00  0.1317E+00  0.2822E-02  0.6800E-02  0.0000E+00  0.1790E-04  0.7699E-04  0.1183E-03  0.2832E-03  0.2610E-03  0.3264E+02  0.3243E+02  0.1548E+03  0.1427E+03  0.0000E+00  0.0000E+00  0.0000E+00  0.0000E+00  0.0000E+00  0.0000E+00  0.0000E+00  0.0000E+00  0.0000E+00  0.0000E+00  0.0000E+00  0.0000E+00  0.0000E+00  0.0000E+00  0.0000E+00  0.0000E+00  0.0000E+00  0.1594E+00  0.4919E-02  0.0000E+00  0.0000E+00
REACH    7        0     3  0.8570E+00  0.1364E-01  0.1363E-01  0.6366E-05  0.0000E+00  0.3364E+01  0.5534E+01  0.8298E+02  0.1867E+00  0.1866E+00  0.4196E-01  0.4193E-01  0.3613E+01  0.3610E+01  0.8605E-02  0.1178E-01  0.1790E-04  0.4501E-04  0.3541E-03  0.4124E-03  0.1534E-02  0.1477E-02  0.7548E+02  0.7525E+02  0.2334E+03  0.2090E+03  0.0000E+00  0.0000E+00  0.0000E+00  0.0000E+00  0.0000E+00  0.0000E+00  0.0000E+00  0.0000E+00  0.0000E+00  0.0000E+00  0.0000E+00  0.0000E+00  0.0000E+00  0.0000E+00  0.0000E+00  0.0000E+00  0.0000E+00  0.3809E+01  0.4235E-01  0.0000E+00  0.0000E+00
REACH    8        0     3  0.1082E+01  0.1757E-01  0.1755E-01  0.1051E-04  0.0000E+00  0.6324E+01  0.5957E+01  0.7583E+02  0.8055E+00  0.8049E+00  0.1791E+00  0.1789E+00  0.4891E+01  0.4886E+01  0.1195E-01  0.1752E-01  0.4501E-04  0.9097E-04  0.9152E-03  0.1200E-02  0.1894E-01  0.1792E-01  0.2544E+03  0.2531E+03  0.2932E+03  0.2032E+03  0.0000E+00  0.0000E+00  0.0000E+00  0.0000E+00  0.0000E+00  0.0000E+00  0.0000E+00  0.0000E+00  0.0000E+00  0.0000E+00  0.0000E+00  0.0000E+00  0.0000E+00  0.0000E+00  0.0000E+00  0.0000E+00  0.0000E+00  0.5709E+01  0.1801E+00  0.0000E+00  0.0000E+00
REACH    9        0     3  0.1363E+01  0.2228E-01  0.2228E-01  0.4779E-05  0.0000E+00  0.6004E+01  0.8004E+01  0.7987E+02  0.8460E+00  0.8458E+00  0.1872E+00  0.1871E+00  0.6330E+01  0.6328E+01  0.2005E-01  0.2255E-01  0.9097E-04  0.1186E-03  0.2524E-02  0.2668E-02  0.1801E-01  0.1767E-01  0.2557E+03  0.2552E+03  0.3011E+03  0.2762E+03  0.0000E+00  0.0000E+00  0.0000E+00  0.0000E+00  0.0000E+00  0.0000E+00  0.0000E+00  0.0000E+00  0.0000E+00  0.0000E+00  0.0000E+00  0.0000E+00  0.0000E+00  0.0000E+00  0.0000E+00  0.0000E+00  0.0000E+00  0.7196E+01  0.1898E+00  0.0000E+00  0.0000E+00
REACH    1        0     4  0.2442E+00  0.1263E-01  0.1262E-01  0.7926E-05  0.0000E+00  0.1532E+01  0.1532E+01  0.5128E+01  0.1467E+01  0.1466E+01  0.3017E+00  0.3012E+00  0.6795E+00  0.6792E+00  0.0000E+00  0.3637E-02  0.0000E+00  0.0000E+00  0.1620E-01  0.1659E-01  0.1684E-01  0.1624E-01  0.2568E+03  0.2551E+03  0.2455E+03  0.1032E+03  0.0000E+00  0.0000E+00  0.0000E+00  0.0000E+00  0.0000E+00  0.0000E+00  0.0000E+00  0.0000E+00  0.0000E+00  0.0000E+00  0.0000E+00  0.0000E+00  0.0000E+00  0.0000E+00  0.0000E+00  0.0000E+00  0.0000E+00  0.2149E+01  0.3178E+00  0.0000E+00  0.0000E+00
REACH    2        0     4  0.1348E+00  0.7079E-02  0.7079E-02  0.5871E-06  0.0000E+00  0.2513E+00  0.2513E+00  0.1432E+01  0.3645E+00  0.3644E+00  0.8004E-01  0.8002E-01  0.3517E+00  0.3517E+00  0.0000E+00  0.2338E-03  0.0000E+00  0.0000E+00  0.1353E-01  0.1354E-01  0.1726E-02  0.1716E-02  0.3029E+02  0.3026E+02  0.1375E+03  0.1115E+03  0.0000E+00  0.0000E+00  0.0000E+00  0.0000E+00  0.0000E+00  0.0000E+00  0.0000E+00  0.0000E+00  0.0000E+00  0.0000E+00  0.0000E+00  0.0000E+00  0.0000E+00  0.0000E+00  0.0000E+00  0.0000E+00  0.0000E+00  0.7163E+00  0.9356E-01  0.0000E+00  0.0000E+00
REACH    3        0     4  0.1273E+00  0.6570E-02  0.6568E-02  0.1894E-05  0.0000E+00  0.1788E+00  0.1788E+00  0.1098E+01  0.2839E+00  0.2838E+00  0.6135E-01  0.6132E-01  0.3445E+00  0.3445E+00  0.0000E+00  0.7382E-03  0.0000E+00  0.0000E+00  0.9900E-02  0.9925E-02  0.1005E-02  0.9930E-03  0.2062E+02  0.2059E+02  0.1303E+03  0.1106E+03  0.0000E+00  0.0000E+00  0.0000E+00  0.0000E+00  0.0000E+00  0.0000E+00  0.0000E+00  0.0000E+00  0.0000E+00  0.0000E+00  0.0000E+00  0.0000E+00  0.0000E+00  0.0000E+00  0.0000E+00  0.0000E+00  0.0000E+00  0.6290E+00  0.7125E-01  0.0000E+00  0.0000E+00
REACH    4        0     4  0.1895E+00  0.1028E-01  0.1028E-01  0.4992E-05  0.0000E+00  0.1692E+01  0.1692E+01  0.8501E+01  0.1598E+01  0.1596E+01  0.3752E+00  0.3748E+00  0.3015E+00  0.3014E+00  0.0000E+00  0.2554E-02  0.0000E+00  0.0000E+00  0.4646E-01  0.4674E-01  0.1464E-01  0.1427E-01  0.2803E+03  0.2790E+03  0.1809E+03  0.6242E+02  0.0000E+00  0.0000E+00  0.0000E+00  0.0000E+00  0.0000E+00  0.0000E+00  0.0000E+00  0.0000E+00  0.0000E+00  0.0000E+00  0.0000E+00  0.0000E+00  0.0000E+00  0.0000E+00  0.0000E+00  0.0000E+00  0.0000E+00  0.1900E+01  0.4216E+00  0.0000E+00  0.0000E+00
REACH    5        0     4  0.2556E+00  0.1340E-01  0.1339E-01  0.4770E-05  0.0000E+00  0.2294E+01  0.2294E+01  0.9480E+01  0.9181E+00  0.9179E+00  0.2045E+00  0.2044E+00  0.6837E+00  0.6836E+00  0.0000E+00  0.2329E-02  0.0000E+00  0.0000E+00  0.2932E-01  0.2945E-01  0.7934E-02  0.7815E-02  0.3897E+03  0.3889E+03  0.2584E+03  0.7775E+02  0.0000E+00  0.0000E+00  0.0000E+00  0.0000E+00  0.0000E+00  0.0000E+00  0.0000E+00  0.0000E+00  0.0000E+00  0.0000E+00  0.0000E+00  0.0000E+00  0.0000E+00  0.0000E+00  0.0000E+00  0.0000E+00  0.0000E+00  0.1604E+01  0.2339E+00  0.0000E+00  0.0000E+00
REACH    6        0     4  0.5361E+00  0.2766E-01  0.2765E-01  0.1191E-04  0.0000E+00  0.2673E+01  0.1241E+02  0.7061E+02  0.1565E+01  0.1564E+01  0.3445E+00  0.3440E+00  0.1431E+01  0.1430E+01  0.3068E-02  0.7677E-02  0.0000E+00  0.4617E-04  0.5527E-01  0.5575E-01  0.1113E-01  0.1085E-01  0.4341E+03  0.4315E+03  0.3420E+03  0.2301E+03  0.0000E+00  0.0000E+00  0.0000E+00  0.0000E+00  0.0000E+00  0.0000E+00  0.0000E+00  0.0000E+00  0.0000E+00  0.0000E+00  0.0000E+00  0.0000E+00  0.0000E+00  0.0000E+00  0.0000E+00  0.0000E+00  0.0000E+00  0.3002E+01  0.3998E+00  0.0000E+00  0.0000E+00
REACH    7        0     4  0.8570E+00  0.4478E-01  0.4477E-01  0.6637E-05  0.0000E+00  0.1782E+02  0.4056E+02  0.9495E+02  0.7671E+01  0.7670E+01  0.1678E+01  0.1678E+01  0.2041E+01  0.2041E+01  0.1023E-01  0.1433E-01  0.4617E-04  0.1174E-03  0.1170E+00  0.1175E+00  0.1301E+00  0.1293E+00  0.1454E+04  0.1452E+04  0.4167E+03  0.2629E+03  0.0000E+00  0.0000E+00  0.0000E+00  0.0000E+00  0.0000E+00  0.0000E+00  0.0000E+00  0.0000E+00  0.0000E+00  0.0000E+00  0.0000E+00  0.0000E+00  0.0000E+00  0.0000E+00  0.0000E+00  0.0000E+00  0.0000E+00  0.9725E+01  0.1795E+01  0.0000E+00  0.0000E+00
REACH    8        0     4  0.1082E+01  0.5618E-01  0.5616E-01  0.1285E-04  0.0000E+00  0.4582E+02  0.3395E+02  0.8035E+02  0.1161E+02  0.1161E+02  0.2535E+01  0.2534E+01  0.2640E+01  0.2640E+01  0.1456E-01  0.2361E-01  0.1174E-03  0.2254E-03  0.1439E+00  0.1455E+00  0.2464E+00  0.2431E+00  0.2732E+04  0.2722E+04  0.4562E+03  0.2815E+03  0.0000E+00  0.0000E+00  0.0000E+00  0.0000E+00  0.0000E+00  0.0000E+00  0.0000E+00  0.0000E+00  0.0000E+00  0.0000E+00  0.0000E+00  0.0000E+00  0.0000E+00  0.0000E+00  0.0000E+00  0.0000E+00  0.0000E+00  0.1427E+02  0.2679E+01  0.0000E+00  0.0000E+00
REACH    9        0     4  0.1363E+01  0.7054E-01  0.7053E-01  0.4951E-05  0.0000E+00  0.3551E+02  0.5830E+02  0.8989E+02  0.1315E+02  0.1315E+02  0.2850E+01  0.2850E+01  0.3412E+01  0.3412E+01  0.2725E-01  0.3063E-01  0.2254E-03  0.2883E-03  0.1746E+00  0.1752E+00  0.2598E+00  0.2589E+00  0.2981E+04  0.2978E+04  0.4205E+03  0.3675E+03  0.0000E+00  0.0000E+00  0.0000E+00  0.0000E+00  0.0000E+00  0.0000E+00  0.0000E+00  0.0000E+00  0.0000E+00  0.0000E+00  0.0000E+00  0.0000E+00  0.0000E+00  0.0000E+00  0.0000E+00  0.0000E+00  0.0000E+00  0.1659E+02  0.3025E+01  0.0000E+00  0.0000E+00
REACH    1        0     5  0.2442E+00  0.7120E-02  0.7114E-02  0.6292E-05  0.0000E+00  0.7903E-01  0.7903E-01  0.6460E+00  0.7359E-01  0.7355E-01  0.1505E-01  0.1504E-01  0.1308E+01  0.1307E+01  0.0000E+00  0.2583E-02  0.0000E+00  0.0000E+00  0.7092E-03  0.7616E-03  0.2415E-03  0.2317E-03  0.6705E+01  0.6676E+01  0.1576E+03  0.1445E+03  0.0000E+00  0.0000E+00  0.0000E+00  0.0000E+00  0.0000E+00  0.0000E+00  0.0000E+00  0.0000E+00  0.0000E+00  0.0000E+00  0.0000E+00  0.0000E+00  0.0000E+00  0.0000E+00  0.0000E+00  0.0000E+00  0.0000E+00  0.1384E+01  0.1580E-01  0.0000E+00  0.0000E+00
REACH    2        0     5  0.1348E+00  0.3951E-02  0.3950E-02  0.4590E-06  0.0000E+00  0.1236E-01  0.1236E-01  0.1806E+00  0.1569E-01  0.1569E-01  0.3441E-02  0.3439E-02  0.7094E+00  0.7093E+00  0.0000E+00  0.1785E-03  0.0000E+00  0.0000E+00  0.6994E-03  0.7017E-03  0.6806E-05  0.6760E-05  0.4021E+00  0.4018E+00  0.8749E+02  0.8483E+02  0.0000E+00  0.0000E+00  0.0000E+00  0.0000E+00  0.0000E+00  0.0000E+00  0.0000E+00  0.0000E+00  0.0000E+00  0.0000E+00  0.0000E+00  0.0000E+00  0.0000E+00  0.0000E+00  0.0000E+00  0.0000E+00  0.0000E+00  0.7252E+00  0.4141E-02  0.0000E+00  0.0000E+00
REACH    3        0     5  0.1273E+00  0.3712E-02  0.3711E-02  0.1710E-05  0.0000E+00  0.8749E-02  0.8749E-02  0.1360E+00  0.1224E-01  0.1224E-01  0.2655E-02  0.2653E-02  0.6813E+00  0.6810E+00  0.0000E+00  0.6746E-03  0.0000E+00  0.0000E+00  0.4019E-03  0.4049E-03  0.3928E-05  0.3844E-05  0.2746E+00  0.2741E+00  0.8229E+02  0.7985E+02  0.0000E+00  0.0000E+00  0.0000E+00  0.0000E+00  0.0000E+00  0.0000E+00  0.0000E+00  0.0000E+00  0.0000E+00  0.0000E+00  0.0000E+00  0.0000E+00  0.0000E+00  0.0000E+00  0.0000E+00  0.0000E+00  0.0000E+00  0.6940E+00  0.3058E-02  0.0000E+00  0.0000E+00
REACH    4        0     5  0.1895E+00  0.5340E-02  0.5336E-02  0.4572E-05  0.0000E+00  0.1933E+00  0.1933E+00  0.4066E+01  0.6125E-01  0.6122E-01  0.1430E-01  0.1429E-01  0.5646E+00  0.5641E+00  0.0000E+00  0.1859E-02  0.0000E+00  0.0000E+00  0.2056E-02  0.2069E-02  0.1970E-03  0.1884E-03  0.2507E+02  0.2496E+02  0.1177E+03  0.9071E+02  0.0000E+00  0.0000E+00  0.0000E+00  0.0000E+00  0.0000E+00  0.0000E+00  0.0000E+00  0.0000E+00  0.0000E+00  0.0000E+00  0.0000E+00  0.0000E+00  0.0000E+00  0.0000E+00  0.0000E+00  0.0000E+00  0.0000E+00  0.6272E+00  0.1636E-01  0.0000E+00  0.0000E+00
REACH    5        0     5  0.2556E+00  0.7349E-02  0.7343E-02  0.5292E-05  0.0000E+00  0.3204E+00  0.3204E+00  0.5238E+01  0.5239E-01  0.5236E-01  0.1164E-01  0.1164E-01  0.1300E+01  0.1300E+01  0.0000E+00  0.2203E-02  0.0000E+00  0.0000E+00  0.1857E-02  0.1945E-02  0.2040E-03  0.1952E-03  0.4437E+02  0.4422E+02  0.1624E+03  0.1196E+03  0.0000E+00  0.0000E+00  0.0000E+00  0.0000E+00  0.0000E+00  0.0000E+00  0.0000E+00  0.0000E+00  0.0000E+00  0.0000E+00  0.0000E+00  0.0000E+00  0.0000E+00  0.0000E+00  0.0000E+00  0.0000E+00  0.0000E+00  0.1354E+01  0.1358E-01  0.0000E+00  0.0000E+00
REACH    6        0     5  0.5361E+00  0.1539E-01  0.1538E-01  0.9739E-05  0.0000E+00  0.3393E+00  0.6670E+01  0.8899E+02  0.8167E-01  0.8162E-01  0.1798E-01  0.1796E-01  0.2759E+01  0.2757E+01  0.2878E-02  0.6972E-02  0.0000E+00  0.1502E-04  0.2980E-02  0.3178E-02  0.3164E-03  0.3047E-03  0.4504E+02  0.4481E+02  0.2955E+03  0.2793E+03  0.0000E+00  0.0000E+00  0.0000E+00  0.0000E+00  0.0000E+00  0.0000E+00  0.0000E+00  0.0000E+00  0.0000E+00  0.0000E+00  0.0000E+00  0.0000E+00  0.0000E+00  0.0000E+00  0.0000E+00  0.0000E+00  0.0000E+00  0.2846E+01  0.2114E-01  0.0000E+00  0.0000E+00
REACH    7        0     5  0.8570E+00  0.2439E-01  0.2438E-01  0.7506E-05  0.0000E+00  0.7178E+01  0.1229E+02  0.1029E+03  0.5064E+00  0.5063E+00  0.1104E+00  0.1103E+00  0.3924E+01  0.3923E+01  0.8831E-02  0.1211E-01  0.1502E-04  0.3646E-04  0.5898E-02  0.6119E-02  0.7933E-02  0.7805E-02  0.1269E+03  0.1266E+03  0.4504E+03  0.4095E+03  0.0000E+00  0.0000E+00  0.0000E+00  0.0000E+00  0.0000E+00  0.0000E+00  0.0000E+00  0.0000E+00  0.0000E+00  0.0000E+00  0.0000E+00  0.0000E+00  0.0000E+00  0.0000E+00  0.0000E+00  0.0000E+00  0.0000E+00  0.4441E+01  0.1165E+00  0.0000E+00  0.0000E+00
REACH    8        0     5  0.1082E+01  0.3072E-01  0.3071E-01  0.1230E-04  0.0000E+00  0.1314E+02  0.1441E+02  0.9952E+02  0.1082E+01  0.1082E+01  0.2377E+00  0.2375E+00  0.5076E+01  0.5074E+01  0.1229E-01  0.1791E-01  0.3646E-04  0.7623E-04  0.7530E-02  0.8078E-02  0.2577E-01  0.2484E-01  0.3403E+03  0.3389E+03  0.5453E+03  0.4372E+03  0.0000E+00  0.0000E+00  0.0000E+00  0.0000E+00  0.0000E+00  0.0000E+00  0.0000E+00  0.0000E+00  0.0000E+00  0.0000E+00  0.0000E+00  0.0000E+00  0.0000E+00  0.0000E+00  0.0000E+00  0.0000E+00  0.0000E+00  0.6174E+01  0.2456E+00  0.0000E+00  0.0000E+00
REACH    9        0     5  0.1363E+01  0.3878E-01  0.3877E-01  0.5600E-05  0.0000E+00  0.1449E+02  0.1900E+02  0.1016E+03  0.1158E+01  0.1158E+01  0.2532E+00  0.2531E+00  0.6548E+01  0.6547E+01  0.2049E-01  0.2301E-01  0.7623E-04  0.1007E-03  0.1243E-01  0.1269E-01  0.2510E-01  0.2479E-01  0.3457E+03  0.3451E+03  0.6030E+03  0.5744E+03  0.0000E+00  0.0000E+00  0.0000E+00  0.0000E+00  0.0000E+00  0.0000E+00  0.0000E+00  0.0000E+00  0.0000E+00  0.0000E+00  0.0000E+00  0.0000E+00  0.0000E+00  0.0000E+00  0.0000E+00  0.0000E+00  0.0000E+00  0.7728E+01  0.2658E+00  0.0000E+00  0.0000E+00
REACH    1        0     6  0.2442E+00  0.2079E-01  0.2078E-01  0.5550E-05  0.0000E+00  0.6814E+01  0.6814E+01  0.9125E+01  0.7629E+01  0.7624E+01  0.1617E+01  0.1616E+01  0.4868E+01  0.4867E+01  0.0000E+00  0.5902E-02  0.0000E+00  0.0000E+00  0.1014E+00  0.1026E+00  0.1476E+00  0.1449E+00  0.1672E+04  0.1665E+04  0.2817E+03  0.1536E+03  0.0000E+00  0.0000E+00  0.0000E+00  0.0000E+00  0.0000E+00  0.0000E+00  0.0000E+00  0.0000E+00  0.0000E+00  0.0000E+00  0.0000E+00  0.0000E+00  0.0000E+00  0.0000E+00  0.0000E+00  0.0000E+00  0.0000E+00  0.1250E+02  0.1719E+01  0.0000E+00  0.0000E+00
REACH    2        0     6  0.1348E+00  0.1154E-01  0.1154E-01  0.4147E-06  0.0000E+00  0.2430E+01  0.2430E+01  0.5223E+01  0.3297E+01  0.3297E+01  0.7165E+00  0.7165E+00  0.2670E+01  0.2670E+01  0.0000E+00  0.3708E-03  0.0000E+00  0.0000E+00  0.6041E-01  0.6048E-01  0.5818E-01  0.5802E-01  0.6118E+03  0.6115E+03  0.1566E+03  0.9414E+02  0.0000E+00  0.0000E+00  0.0000E+00  0.0000E+00  0.0000E+00  0.0000E+00  0.0000E+00  0.0000E+00  0.0000E+00  0.0000E+00  0.0000E+00  0.0000E+00  0.0000E+00  0.0000E+00  0.0000E+00  0.0000E+00  0.0000E+00  0.5967E+01  0.7769E+00  0.0000E+00  0.0000E+00
REACH    3        0     6  0.1273E+00  0.1082E-01  0.1082E-01  0.1565E-05  0.0000E+00  0.1824E+01  0.1824E+01  0.4160E+01  0.3011E+01  0.3010E+01  0.6510E+00  0.6508E+00  0.2511E+01  0.2511E+01  0.0000E+00  0.1263E-02  0.0000E+00  0.0000E+00  0.5885E-01  0.5905E-01  0.5272E-01  0.5218E-01  0.4562E+03  0.4554E+03  0.1483E+03  0.8943E+02  0.0000E+00  0.0000E+00  0.0000E+00  0.0000E+00  0.0000E+00  0.0000E+00  0.0000E+00  0.0000E+00  0.0000E+00  0.0000E+00  0.0000E+00  0.0000E+00  0.0000E+00  0.0000E+00  0.0000E+00  0.0000E+00  0.0000E+00  0.5522E+01  0.7098E+00  0.0000E+00  0.0000E+00
REACH    4        0     6  0.1895E+00  0.1608E-01  0.1608E-01  0.4070E-05  0.0000E+00  0.4993E+01  0.4993E+01  0.1168E+02  0.5636E+01  0.5633E+01  0.1289E+01  0.1288E+01  0.2603E+01  0.2602E+01  0.0000E+00  0.3727E-02  0.0000E+00  0.0000E+00  0.1125E+00  0.1132E+00  0.1079E+00  0.1062E+00  0.1158E+04  0.1154E+04  0.2086E+03  0.1016E+03  0.0000E+00  0.0000E+00  0.0000E+00  0.0000E+00  0.0000E+00  0.0000E+00  0.0000E+00  0.0000E+00  0.0000E+00  0.0000E+00  0.0000E+00  0.0000E+00  0.0000E+00  0.0000E+00  0.0000E+00  0.0000E+00  0.0000E+00  0.8239E+01  0.1401E+01  0.0000E+00  0.0000E+00
REACH    5        0     6  0.2556E+00  0.2180E-01  0.2179E-01  0.4687E-05  0.0000E+00  0.6245E+01  0.6245E+01  0.1233E+02  0.6709E+01  0.6707E+01  0.1464E+01  0.1463E+01  0.4635E+01  0.4634E+01  0.0000E+00  0.4100E-02  0.0000E+00  0.0000E+00  0.1198E+00  0.1206E+00  0.1304E+00  0.1287E+00  0.1421E+04  0.1417E+04  0.2760E+03  0.1294E+03  0.0000E+00  0.0000E+00  0.0000E+00  0.0000E+00  0.0000E+00  0.0000E+00  0.0000E+00  0.0000E+00  0.0000E+00  0.0000E+00  0.0000E+00  0.0000E+00  0.0000E+00  0.0000E+00  0.0000E+00  0.0000E+00  0.0000E+00  0.1134E+02  0.1584E+01  0.0000E+00  0.0000E+00
REACH    6        0     6  0.5361E+00  0.4538E-01  0.4537E-01  0.8389E-05  0.0000E+00  0.1004E+02  0.2803E+02  0.1083E+03  0.1329E+02  0.1328E+02  0.2885E+01  0.2883E+01  0.9980E+01  0.9978E+01  0.5363E-02  0.1420E-01  0.0000E+00  0.8667E-05  0.2657E+00  0.2676E+00  0.2456E+00  0.2427E+00  0.2366E+04  0.2358E+04  0.3973E+03  0.3065E+03  0.0000E+00  0.0000E+00  0.0000E+00  0.0000E+00  0.0000E+00  0.0000E+00  0.0000E+00  0.0000E+00  0.0000E+00  0.0000E+00  0.0000E+00  0.0000E+00  0.0000E+00  0.0000E+00  0.0000E+00  0.0000E+00  0.0000E+00  0.2327E+02  0.3151E+01  0.0000E+00  0.0000E+00
REACH    7        0     6  0.8570E+00  0.7262E-01  0.7261E-01  0.6372E-05  0.0000E+00  0.4259E+02  0.5200E+02  0.1262E+03  0.3002E+02  0.3001E+02  0.6499E+01  0.6496E+01  0.1504E+02  0.1504E+02  0.1792E-01  0.2633E-01  0.8667E-05  0.1920E-04  0.4407E+00  0.4429E+00  0.6451E+00  0.6416E+00  0.5818E+04  0.5808E+04  0.5542E+03  0.4513E+03  0.0000E+00  0.0000E+00  0.0000E+00  0.0000E+00  0.0000E+00  0.0000E+00  0.0000E+00  0.0000E+00  0.0000E+00  0.0000E+00  0.0000E+00  0.0000E+00  0.0000E+00  0.0000E+00  0.0000E+00  0.0000E+00  0.0000E+00  0.4508E+02  0.6939E+01  0.0000E+00  0.0000E+00
REACH    8        0     6  0.1082E+01  0.9141E-01  0.9140E-01  0.1047E-04  0.0000E+00  0.6230E+02  0.5980E+02  0.1140E+03  0.3909E+02  0.3908E+02  0.8447E+01  0.8443E+01  0.1932E+02  0.1931E+02  0.2670E-01  0.4225E-01  0.1920E-04  0.4617E-04  0.5669E+00  0.5710E+00  0.8666E+00  0.8598E+00  0.8397E+04  0.8375E+04  0.6506E+03  0.4798E+03  0.0000E+00  0.0000E+00  0.0000E+00  0.0000E+00  0.0000E+00  0.0000E+00  0.0000E+00  0.0000E+00  0.0000E+00  0.0000E+00  0.0000E+00  0.0000E+00  0.0000E+00  0.0000E+00  0.0000E+00  0.0000E+00  0.0000E+00  0.5843E+02  0.9014E+01  0.0000E+00  0.0000E+00
REACH    9        0     6  0.1363E+01  0.1152E+00  0.1152E+00  0.4724E-05  0.0000E+00  0.6687E+02  0.7947E+02  0.1169E+03  0.4740E+02  0.4739E+02  0.1021E+02  0.1021E+02  0.2479E+02  0.2479E+02  0.4815E-01  0.5505E-01  0.4617E-04  0.6112E-04  0.7157E+00  0.7176E+00  0.1018E+01  0.1016E+01  0.1010E+05  0.1009E+05  0.6803E+03  0.6310E+03  0.0000E+00  0.0000E+00  0.0000E+00  0.0000E+00  0.0000E+00  0.0000E+00  0.0000E+00  0.0000E+00  0.0000E+00  0.0000E+00  0.0000E+00  0.0000E+00  0.0000E+00  0.0000E+00  0.0000E+00  0.0000E+00  0.0000E+00  0.7223E+02  0.1092E+02  0.0000E+00  0.0000E+00
REACH    1        0     7  0.2442E+00  0.1470E-01  0.1469E-01  0.5360E-05  0.0000E+00  0.1250E+01  0.1250E+01  0.9745E+01  0.1797E+01  0.1796E+01  0.4143E+00  0.4139E+00  0.5386E+01  0.5384E+01  0.0000E+00  0.3265E-02  0.0000E+00  0.0000E+00  0.1668E-01  0.1708E-01  0.5490E-02  0.5285E-02  0.1033E+03  0.1029E+03  0.3177E+03  0.2344E+03  0.0000E+00  0.0000E+00  0.0000E+00  0.0000E+00  0.0000E+00  0.0000E+00  0.0000E+00  0.0000E+00  0.0000E+00  0.0000E+00  0.0000E+00  0.0000E+00  0.0000E+00  0.0000E+00  0.0000E+00  0.0000E+00  0.0000E+00  0.7183E+01  0.4310E+00  0.0000E+00  0.0000E+00
REACH    2        0     7  0.1348E+00  0.8183E-02  0.8183E-02  0.4066E-06  0.0000E+00  0.4468E+00  0.4468E+00  0.5821E+01  0.6649E+00  0.6649E+00  0.1457E+00  0.1457E+00  0.2786E+01  0.2786E+01  0.0000E+00  0.2153E-03  0.0000E+00  0.0000E+00  0.7338E-02  0.7357E-02  0.7165E-03  0.7131E-03  0.2735E+02  0.2734E+02  0.1768E+03  0.1495E+03  0.0000E+00  0.0000E+00  0.0000E+00  0.0000E+00  0.0000E+00  0.0000E+00  0.0000E+00  0.0000E+00  0.0000E+00  0.0000E+00  0.0000E+00  0.0000E+00  0.0000E+00  0.0000E+00  0.0000E+00  0.0000E+00  0.0000E+00  0.3451E+01  0.1531E+00  0.0000E+00  0.0000E+00
REACH    3        0     7  0.1273E+00  0.7665E-02  0.7664E-02  0.1470E-05  0.0000E+00  0.3291E+00  0.3291E+00  0.4587E+01  0.5837E+00  0.5835E+00  0.1268E+00  0.1267E+00  0.2601E+01  0.2601E+01  0.0000E+00  0.7578E-03  0.0000E+00  0.0000E+00  0.5471E-02  0.5515E-02  0.5304E-03  0.5211E-03  0.1967E+02  0.1964E+02  0.1664E+03  0.1448E+03  0.0000E+00  0.0000E+00  0.0000E+00  0.0000E+00  0.0000E+00  0.0000E+00  0.0000E+00  0.0000E+00  0.0000E+00  0.0000E+00  0.0000E+00  0.0000E+00  0.0000E+00  0.0000E+00  0.0000E+00  0.0000E+00  0.0000E+00  0.3185E+01  0.1322E+00  0.0000E+00  0.0000E+00
REACH    4        0     7  0.1895E+00  0.1174E-01  0.1174E-01  0.3960E-05  0.0000E+00  0.1228E+01  0.1228E+01  0.1346E+02  0.1625E+01  0.1624E+01  0.3775E+00  0.3772E+00  0.3908E+01  0.3907E+01  0.0000E+00  0.2398E-02  0.0000E+00  0.0000E+00  0.2288E-01  0.2316E-01  0.3540E-02  0.3425E-02  0.1233E+03  0.1228E+03  0.2485E+03  0.1628E+03  0.0000E+00  0.0000E+00  0.0000E+00  0.0000E+00  0.0000E+00  0.0000E+00  0.0000E+00  0.0000E+00  0.0000E+00  0.0000E+00  0.0000E+00  0.0000E+00  0.0000E+00  0.0000E+00  0.0000E+00  0.0000E+00  0.0000E+00  0.5534E+01  0.4003E+00  0.0000E+00  0.0000E+00
REACH    5        0     7  0.2556E+00  0.1537E-01  0.1536E-01  0.4418E-05  0.0000E+00  0.1781E+01  0.1781E+01  0.1559E+02  0.1980E+01  0.1979E+01  0.4339E+00  0.4336E+00  0.4984E+01  0.4983E+01  0.0000E+00  0.2654E-02  0.0000E+00  0.0000E+00  0.1949E-01  0.1979E-01  0.3931E-02  0.3825E-02  0.2037E+03  0.2032E+03  0.3229E+03  0.1991E+03  0.0000E+00  0.0000E+00  0.0000E+00  0.0000E+00  0.0000E+00  0.0000E+00  0.0000E+00  0.0000E+00  0.0000E+00  0.0000E+00  0.0000E+00  0.0000E+00  0.0000E+00  0.0000E+00  0.0000E+00  0.0000E+00  0.0000E+00  0.6964E+01  0.4534E+00  0.0000E+00  0.0000E+00
REACH    6        0     7  0.5361E+00  0.3214E-01  0.3214E-01  0.8170E-05  0.0000E+00  0.2463E+01  0.1822E+02  0.1311E+03  0.3240E+01  0.3238E+01  0.7074E+00  0.7068E+00  0.1073E+02  0.1073E+02  0.3412E-02  0.8595E-02  0.0000E+00  0.5426E-05  0.3350E-01  0.3417E-01  0.5362E-02  0.5228E-02  0.2443E+03  0.2433E+03  0.5424E+03  0.4848E+03  0.0000E+00  0.0000E+00  0.0000E+00  0.0000E+00  0.0000E+00  0.0000E+00  0.0000E+00  0.0000E+00  0.0000E+00  0.0000E+00  0.0000E+00  0.0000E+00  0.0000E+00  0.0000E+00  0.0000E+00  0.0000E+00  0.0000E+00  0.1398E+02  0.7410E+00  0.0000E+00  0.0000E+00
REACH    7        0     7  0.8570E+00  0.5179E-01  0.5179E-01  0.6181E-05  0.0000E+00  0.2121E+02  0.3413E+02  0.1516E+03  0.7983E+01  0.7981E+01  0.1809E+01  0.1809E+01  0.1874E+02  0.1874E+02  0.1099E-01  0.1553E-01  0.5426E-05  0.9030E-05  0.1015E+00  0.1023E+00  0.4248E-01  0.4194E-01  0.6047E+03  0.6035E+03  0.8151E+03  0.7031E+03  0.0000E+00  0.0000E+00  0.0000E+00  0.0000E+00  0.0000E+00  0.0000E+00  0.0000E+00  0.0000E+00  0.0000E+00  0.0000E+00  0.0000E+00  0.0000E+00  0.0000E+00  0.0000E+00  0.0000E+00  0.0000E+00  0.0000E+00  0.2673E+02  0.1911E+01  0.0000E+00  0.0000E+00
REACH    8        0     7  0.1082E+01  0.6507E-01  0.6506E-01  0.1020E-04  0.0000E+00  0.3703E+02  0.3905E+02  0.1385E+03  0.1031E+02  0.1030E+02  0.2342E+01  0.2340E+01  0.2362E+02  0.2362E+02  0.1574E-01  0.2379E-01  0.9030E-05  0.2342E-04  0.1206E+00  0.1221E+00  0.7660E-01  0.7506E-01  0.1208E+04  0.1204E+04  0.9608E+03  0.7513E+03  0.0000E+00  0.0000E+00  0.0000E+00  0.0000E+00  0.0000E+00  0.0000E+00  0.0000E+00  0.0000E+00  0.0000E+00  0.0000E+00  0.0000E+00  0.0000E+00  0.0000E+00  0.0000E+00  0.0000E+00  0.0000E+00  0.0000E+00  0.3395E+02  0.2462E+01  0.0000E+00  0.0000E+00
REACH    9        0     7  0.1363E+01  0.8189E-01  0.8189E-01  0.4610E-05  0.0000E+00  0.4035E+02  0.4930E+02  0.1402E+03  0.1222E+02  0.1222E+02  0.2781E+01  0.2780E+01  0.2972E+02  0.2972E+02  0.2706E-01  0.3071E-01  0.2342E-04  0.3257E-04  0.1493E+00  0.1500E+00  0.8077E-01  0.8019E-01  0.1310E+04  0.1309E+04  0.1033E+04  0.9882E+03  0.0000E+00  0.0000E+00  0.0000E+00  0.0000E+00  0.0000E+00  0.0000E+00  0.0000E+00  0.0000E+00  0.0000E+00  0.0000E+00  0.0000E+00  0.0000E+00  0.0000E+00  0.0000E+00  0.0000E+00  0.0000E+00  0.0000E+00  0.4197E+02  0.2930E+01  0.0000E+00  0.0000E+00
REACH    1        0     8  0.2442E+00  0.3415E-01  0.3414E-01  0.8810E-05  0.0000E+00  0.3157E+02  0.3157E+02  0.7446E+02  0.4551E+02  0.4547E+02  0.1008E+02  0.1007E+02  0.6321E+01  0.6319E+01  0.0000E+00  0.2733E-01  0.0000E+00  0.0000E+00  0.1801E+00  0.1892E+00  0.6566E+00  0.6390E+00  0.7108E+04  0.7068E+04  0.5799E+03  0.3572E+03  0.0000E+00  0.0000E+00  0.0000E+00  0.0000E+00  0.0000E+00  0.0000E+00  0.0000E+00  0.0000E+00  0.0000E+00  0.0000E+00  0.0000E+00  0.0000E+00  0.0000E+00  0.0000E+00  0.0000E+00  0.0000E+00  0.0000E+00  0.5182E+02  0.1026E+02  0.0000E+00  0.0000E+00
REACH    2        0     8  0.1348E+00  0.1891E-01  0.1891E-01  0.7115E-06  0.0000E+00  0.1548E+02  0.1548E+02  0.6421E+02  0.2375E+02  0.2375E+02  0.5191E+01  0.5190E+01  0.3156E+01  0.3156E+01  0.0000E+00  0.1931E-02  0.0000E+00  0.0000E+00  0.8563E-01  0.8625E-01  0.3365E+00  0.3351E+00  0.3524E+04  0.3522E+04  0.3184E+03  0.2057E+03  0.0000E+00  0.0000E+00  0.0000E+00  0.0000E+00  0.0000E+00  0.0000E+00  0.0000E+00  0.0000E+00  0.0000E+00  0.0000E+00  0.0000E+00  0.0000E+00  0.0000E+00  0.0000E+00  0.0000E+00  0.0000E+00  0.0000E+00  0.2691E+02  0.5276E+01  0.0000E+00  0.0000E+00
REACH    3        0     8  0.1273E+00  0.1780E-01  0.1779E-01  0.2527E-05  0.0000E+00  0.1153E+02  0.1153E+02  0.5093E+02  0.2150E+02  0.2149E+02  0.4669E+01  0.4667E+01  0.3025E+01  0.3024E+01  0.0000E+00  0.5335E-02  0.0000E+00  0.0000E+00  0.7588E-01  0.7753E-01  0.2959E+00  0.2918E+00  0.2602E+04  0.2597E+04  0.3033E+03  0.1977E+03  0.0000E+00  0.0000E+00  0.0000E+00  0.0000E+00  0.0000E+00  0.0000E+00  0.0000E+00  0.0000E+00  0.0000E+00  0.0000E+00  0.0000E+00  0.0000E+00  0.0000E+00  0.0000E+00  0.0000E+00  0.0000E+00  0.0000E+00  0.2452E+02  0.4744E+01  0.0000E+00  0.0000E+00
REACH    4        0     8  0.1895E+00  0.2686E-01  0.2685E-01  0.6532E-05  0.0000E+00  0.2389E+02  0.2389E+02  0.7358E+02  0.3954E+02  0.3952E+02  0.9084E+01  0.9075E+01  0.4292E+01  0.4291E+01  0.0000E+00  0.1853E-01  0.0000E+00  0.0000E+00  0.2032E+00  0.2095E+00  0.6480E+00  0.6329E+00  0.5438E+04  0.5415E+04  0.4295E+03  0.2585E+03  0.0000E+00  0.0000E+00  0.0000E+00  0.0000E+00  0.0000E+00  0.0000E+00  0.0000E+00  0.0000E+00  0.0000E+00  0.0000E+00  0.0000E+00  0.0000E+00  0.0000E+00  0.0000E+00  0.0000E+00  0.0000E+00  0.0000E+00  0.4383E+02  0.9285E+01  0.0000E+00  0.0000E+00
REACH    5        0     8  0.2556E+00  0.3615E-01  0.3614E-01  0.6584E-05  0.0000E+00  0.2783E+02  0.2783E+02  0.6625E+02  0.5200E+02  0.5197E+02  0.1137E+02  0.1136E+02  0.5969E+01  0.5967E+01  0.0000E+00  0.1755E-01  0.0000E+00  0.0000E+00  0.1861E+00  0.1917E+00  0.8874E+00  0.8731E+00  0.6669E+04  0.6650E+04  0.5716E+03  0.3398E+03  0.0000E+00  0.0000E+00  0.0000E+00  0.0000E+00  0.0000E+00  0.0000E+00  0.0000E+00  0.0000E+00  0.0000E+00  0.0000E+00  0.0000E+00  0.0000E+00  0.0000E+00  0.0000E+00  0.0000E+00  0.0000E+00  0.0000E+00  0.5796E+02  0.1156E+02  0.0000E+00  0.0000E+00
REACH    6        0     8  0.5361E+00  0.7522E-01  0.7521E-01  0.1298E-04  0.0000E+00  0.5159E+02  0.4658E+02  0.1470E+03  0.9773E+02  0.9767E+02  0.2130E+02  0.2128E+02  0.1269E+02  0.1269E+02  0.2288E-01  0.6278E-01  0.0000E+00  0.3328E-05  0.3756E+00  0.3901E+00  0.1494E+01  0.1470E+01  0.1199E+05  0.1194E+05  0.9053E+03  0.7606E+03  0.0000E+00  0.0000E+00  0.0000E+00  0.0000E+00  0.0000E+00  0.0000E+00  0.0000E+00  0.0000E+00  0.0000E+00  0.0000E+00  0.0000E+00  0.0000E+00  0.0000E+00  0.0000E+00  0.0000E+00  0.0000E+00  0.0000E+00  0.1104E+03  0.2167E+02  0.0000E+00  0.0000E+00
REACH    7        0     8  0.8570E+00  0.1205E+00  0.1205E+00  0.8761E-05  0.0000E+00  0.9220E+02  0.9699E+02  0.1789E+03  0.1717E+03  0.1716E+03  0.3834E+02  0.3833E+02  0.2188E+02  0.2187E+02  0.8132E-01  0.1150E+00  0.3328E-05  0.8222E-05  0.9059E+00  0.9174E+00  0.2751E+01  0.2734E+01  0.2218E+05  0.2215E+05  0.1322E+04  0.1175E+04  0.0000E+00  0.0000E+00  0.0000E+00  0.0000E+00  0.0000E+00  0.0000E+00  0.0000E+00  0.0000E+00  0.0000E+00  0.0000E+00  0.0000E+00  0.0000E+00  0.0000E+00  0.0000E+00  0.0000E+00  0.0000E+00  0.0000E+00  0.1936E+03  0.3925E+02  0.0000E+00  0.0000E+00
REACH    8        0     8  0.1082E+01  0.1517E+00  0.1517E+00  0.1597E-04  0.0000E+00  0.1242E+03  0.9347E+02  0.1547E+03  0.2105E+03  0.2104E+03  0.4695E+02  0.4692E+02  0.2796E+02  0.2796E+02  0.1169E+00  0.1917E+00  0.8222E-05  0.2131E-04  0.1118E+01  0.1144E+01  0.3317E+01  0.3283E+01  0.2837E+05  0.2827E+05  0.1597E+04  0.1388E+04  0.0000E+00  0.0000E+00  0.0000E+00  0.0000E+00  0.0000E+00  0.0000E+00  0.0000E+00  0.0000E+00  0.0000E+00  0.0000E+00  0.0000E+00  0.0000E+00  0.0000E+00  0.0000E+00  0.0000E+00  0.0000E+00  0.0000E+00  0.2386E+03  0.4807E+02  0.0000E+00  0.0000E+00
REACH    9        0     8  0.1363E+01  0.1909E+00  0.1909E+00  0.7186E-05  0.0000E+00  0.1265E+03  0.1216E+03  0.1577E+03  0.2602E+03  0.2601E+03  0.5791E+02  0.5789E+02  0.3512E+02  0.3511E+02  0.2190E+00  0.2531E+00  0.2131E-04  0.2584E-04  0.1387E+01  0.1399E+01  0.3981E+01  0.3967E+01  0.3567E+05  0.3563E+05  0.1836E+04  0.1781E+04  0.0000E+00  0.0000E+00  0.0000E+00  0.0000E+00  0.0000E+00  0.0000E+00  0.0000E+00  0.0000E+00  0.0000E+00  0.0000E+00  0.0000E+00  0.0000E+00  0.0000E+00  0.0000E+00  0.0000E+00  0.0000E+00  0.0000E+00  0.2955E+03  0.5929E+02  0.0000E+00  0.0000E+00
REACH    1        0     9  0.2442E+00  0.9183E-02  0.9176E-02  0.7326E-05  0.0000E+00  0.8976E+01  0.8976E+01  0.6261E+02  0.9300E+01  0.9294E+01  0.2068E+01  0.2066E+01  0.1421E+01  0.1420E+01  0.0000E+00  0.5731E-02  0.0000E+00  0.0000E+00  0.1804E-01  0.1936E-01  0.7440E-01  0.7232E-01  0.1450E+04  0.1445E+04  0.1693E+03  0.1011E+03  0.0000E+00  0.0000E+00  0.0000E+00  0.0000E+00  0.0000E+00  0.0000E+00  0.0000E+00  0.0000E+00  0.0000E+00  0.0000E+00  0.0000E+00  0.0000E+00  0.0000E+00  0.0000E+00  0.0000E+00  0.0000E+00  0.0000E+00  0.1072E+02  0.2086E+01  0.0000E+00  0.0000E+00
REACH    2        0     9  0.1348E+00  0.5034E-02  0.5034E-02  0.6127E-06  0.0000E+00  0.4499E+01  0.4499E+01  0.5532E+02  0.5249E+01  0.5248E+01  0.1151E+01  0.1151E+01  0.6989E+00  0.6988E+00  0.0000E+00  0.6414E-03  0.0000E+00  0.0000E+00  0.8575E-02  0.8752E-02  0.4116E-01  0.4088E-01  0.7363E+03  0.7356E+03  0.9158E+02  0.5748E+02  0.0000E+00  0.0000E+00  0.0000E+00  0.0000E+00  0.0000E+00  0.0000E+00  0.0000E+00  0.0000E+00  0.0000E+00  0.0000E+00  0.0000E+00  0.0000E+00  0.0000E+00  0.0000E+00  0.0000E+00  0.0000E+00  0.0000E+00  0.5947E+01  0.1159E+01  0.0000E+00  0.0000E+00
REACH    3        0     9  0.1273E+00  0.4804E-02  0.4802E-02  0.2058E-05  0.0000E+00  0.3297E+01  0.3297E+01  0.4331E+02  0.4666E+01  0.4665E+01  0.1016E+01  0.1015E+01  0.6667E+00  0.6665E+00  0.0000E+00  0.1384E-02  0.0000E+00  0.0000E+00  0.6722E-02  0.7003E-02  0.3501E-01  0.3449E-01  0.5434E+03  0.5425E+03  0.8888E+02  0.5708E+02  0.0000E+00  0.0000E+00  0.0000E+00  0.0000E+00  0.0000E+00  0.0000E+00  0.0000E+00  0.0000E+00  0.0000E+00  0.0000E+00  0.0000E+00  0.0000E+00  0.0000E+00  0.0000E+00  0.0000E+00  0.0000E+00  0.0000E+00  0.5333E+01  0.1022E+01  0.0000E+00  0.0000E+00
REACH    4        0     9  0.1895E+00  0.7116E-02  0.7111E-02  0.5483E-05  0.0000E+00  0.7293E+01  0.7293E+01  0.6538E+02  0.9962E+01  0.9956E+01  0.2307E+01  0.2306E+01  0.1018E+01  0.1018E+01  0.0000E+00  0.5196E-02  0.0000E+00  0.0000E+00  0.2481E-01  0.2618E-01  0.9851E-01  0.9586E-01  0.1184E+04  0.1180E+04  0.1224E+03  0.6849E+02  0.0000E+00  0.0000E+00  0.0000E+00  0.0000E+00  0.0000E+00  0.0000E+00  0.0000E+00  0.0000E+00  0.0000E+00  0.0000E+00  0.0000E+00  0.0000E+00  0.0000E+00  0.0000E+00  0.0000E+00  0.0000E+00  0.0000E+00  0.1098E+02  0.2332E+01  0.0000E+00  0.0000E+00
REACH    5        0     9  0.2556E+00  0.9327E-02  0.9321E-02  0.6265E-05  0.0000E+00  0.7870E+01  0.7870E+01  0.5456E+02  0.1187E+02  0.1186E+02  0.2602E+01  0.2601E+01  0.1416E+01  0.1415E+01  0.0000E+00  0.4758E-02  0.0000E+00  0.0000E+00  0.1989E-01  0.2097E-01  0.1061E+00  0.1039E+00  0.1363E+04  0.1360E+04  0.1625E+03  0.8882E+02  0.0000E+00  0.0000E+00  0.0000E+00  0.0000E+00  0.0000E+00  0.0000E+00  0.0000E+00  0.0000E+00  0.0000E+00  0.0000E+00  0.0000E+00  0.0000E+00  0.0000E+00  0.0000E+00  0.0000E+00  0.0000E+00  0.0000E+00  0.1328E+02  0.2622E+01  0.0000E+00  0.0000E+00
REACH    6        0     9  0.5361E+00  0.2007E-01  0.2005E-01  0.1154E-04  0.0000E+00  0.1462E+02  0.9848E+01  0.9870E+02  0.2157E+02  0.2156E+02  0.4714E+01  0.4711E+01  0.2918E+01  0.2916E+01  0.6142E-02  0.1693E-01  0.0000E+00  0.8782E-05  0.3694E-01  0.3999E-01  0.1753E+00  0.1718E+00  0.2467E+04  0.2459E+04  0.2580E+03  0.2144E+03  0.0000E+00  0.0000E+00  0.0000E+00  0.0000E+00  0.0000E+00  0.0000E+00  0.0000E+00  0.0000E+00  0.0000E+00  0.0000E+00  0.0000E+00  0.0000E+00  0.0000E+00  0.0000E+00  0.0000E+00  0.0000E+00  0.0000E+00  0.2449E+02  0.4751E+01  0.0000E+00  0.0000E+00
REACH    7        0     9  0.8570E+00  0.3215E-01  0.3214E-01  0.8870E-05  0.0000E+00  0.2298E+02  0.1845E+02  0.1126E+03  0.3822E+02  0.3821E+02  0.8588E+01  0.8585E+01  0.5234E+01  0.5233E+01  0.2213E-01  0.3192E-01  0.8782E-05  0.1999E-04  0.1040E+00  0.1067E+00  0.3460E+00  0.3427E+00  0.4622E+04  0.4614E+04  0.3722E+03  0.3267E+03  0.0000E+00  0.0000E+00  0.0000E+00  0.0000E+00  0.0000E+00  0.0000E+00  0.0000E+00  0.0000E+00  0.0000E+00  0.0000E+00  0.0000E+00  0.0000E+00  0.0000E+00  0.0000E+00  0.0000E+00  0.0000E+00  0.0000E+00  0.4348E+02  0.8691E+01  0.0000E+00  0.0000E+00
REACH    8        0     9  0.1082E+01  0.4072E-01  0.4071E-01  0.1460E-04  0.0000E+00  0.2629E+02  0.2074E+02  0.1040E+03  0.4574E+02  0.4572E+02  0.1026E+02  0.1026E+02  0.6585E+01  0.6583E+01  0.3256E-01  0.5042E-01  0.1999E-04  0.4696E-04  0.1257E+00  0.1309E+00  0.4114E+00  0.4060E+00  0.6062E+04  0.6046E+04  0.4521E+03  0.3750E+03  0.0000E+00  0.0000E+00  0.0000E+00  0.0000E+00  0.0000E+00  0.0000E+00  0.0000E+00  0.0000E+00  0.0000E+00  0.0000E+00  0.0000E+00  0.0000E+00  0.0000E+00  0.0000E+00  0.0000E+00  0.0000E+00  0.0000E+00  0.5236E+02  0.1039E+02  0.0000E+00  0.0000E+00
REACH    9        0     9  0.1363E+01  0.5136E-01  0.5136E-01  0.6613E-05  0.0000E+00  0.3012E+02  0.2804E+02  0.1101E+03  0.5585E+02  0.5584E+02  0.1250E+02  0.1250E+02  0.8206E+01  0.8205E+01  0.5615E-01  0.6400E-01  0.4696E-04  0.6017E-04  0.1562E+00  0.1585E+00  0.4847E+00  0.4824E+00  0.7556E+04  0.7549E+04  0.5048E+03  0.4872E+03  0.0000E+00  0.0000E+00  0.0000E+00  0.0000E+00  0.0000E+00  0.0000E+00  0.0000E+00  0.0000E+00  0.0000E+00  0.0000E+00  0.0000E+00  0.0000E+00  0.0000E+00  0.0000E+00  0.0000E+00  0.0000E+00  0.0000E+00  0.6411E+02  0.1266E+02  0.0000E+00  0.0000E+00
REACH    1        0    10  0.2442E+00  0.1329E-01  0.1328E-01  0.9438E-05  0.0000E+00  0.4246E+02  0.4246E+02  0.2053E+03  0.3980E+02  0.3976E+02  0.8786E+01  0.8774E+01  0.2936E+01  0.2934E+01  0.0000E+00  0.2531E-01  0.0000E+00  0.0000E+00  0.4838E-01  0.5679E-01  0.3901E+00  0.3755E+00  0.6801E+04  0.6758E+04  0.2057E+03  0.8597E+02  0.0000E+00  0.0000E+00  0.0000E+00  0.0000E+00  0.0000E+00  0.0000E+00  0.0000E+00  0.0000E+00  0.0000E+00  0.0000E+00  0.0000E+00  0.0000E+00  0.0000E+00  0.0000E+00  0.0000E+00  0.0000E+00  0.0000E+00  0.4272E+02  0.8831E+01  0.0000E+00  0.0000E+00
REACH    2        0    10  0.1348E+00  0.7361E-02  0.7360E-02  0.8234E-06  0.0000E+00  0.2237E+02  0.2237E+02  0.1930E+03  0.2315E+02  0.2315E+02  0.5086E+01  0.5085E+01  0.1504E+01  0.1503E+01  0.0000E+00  0.2360E-02  0.0000E+00  0.0000E+00  0.2493E-01  0.2573E-01  0.2346E+00  0.2332E+00  0.3633E+04  0.3629E+04  0.1115E+03  0.4705E+02  0.0000E+00  0.0000E+00  0.0000E+00  0.0000E+00  0.0000E+00  0.0000E+00  0.0000E+00  0.0000E+00  0.0000E+00  0.0000E+00  0.0000E+00  0.0000E+00  0.0000E+00  0.0000E+00  0.0000E+00  0.0000E+00  0.0000E+00  0.2465E+02  0.5111E+01  0.0000E+00  0.0000E+00
REACH    3        0    10  0.1273E+00  0.6941E-02  0.6939E-02  0.2225E-05  0.0000E+00  0.1646E+02  0.1646E+02  0.1524E+03  0.2145E+02  0.2145E+02  0.4671E+01  0.4670E+01  0.1448E+01  0.1447E+01  0.0000E+00  0.3802E-02  0.0000E+00  0.0000E+00  0.2111E-01  0.2225E-01  0.2062E+00  0.2038E+00  0.2785E+04  0.2781E+04  0.1080E+03  0.4595E+02  0.0000E+00  0.0000E+00  0.0000E+00  0.0000E+00  0.0000E+00  0.0000E+00  0.0000E+00  0.0000E+00  0.0000E+00  0.0000E+00  0.0000E+00  0.0000E+00  0.0000E+00  0.0000E+00  0.0000E+00  0.0000E+00  0.0000E+00  0.2290E+02  0.4692E+01  0.0000E+00  0.0000E+00
REACH    4        0    10  0.1895E+00  0.1057E-01  0.1056E-01  0.7007E-05  0.0000E+00  0.3548E+02  0.3548E+02  0.2119E+03  0.4996E+02  0.4992E+02  0.1164E+02  0.1163E+02  0.2068E+01  0.2066E+01  0.0000E+00  0.2129E-01  0.0000E+00  0.0000E+00  0.6605E-01  0.7363E-01  0.6449E+00  0.6265E+00  0.6054E+04  0.6028E+04  0.1453E+03  0.5996E+02  0.0000E+00  0.0000E+00  0.0000E+00  0.0000E+00  0.0000E+00  0.0000E+00  0.0000E+00  0.0000E+00  0.0000E+00  0.0000E+00  0.0000E+00  0.0000E+00  0.0000E+00  0.0000E+00  0.0000E+00  0.0000E+00  0.0000E+00  0.5201E+02  0.1170E+02  0.0000E+00  0.0000E+00
REACH    5        0    10  0.2556E+00  0.1390E-01  0.1390E-01  0.6804E-05  0.0000E+00  0.3518E+02  0.3518E+02  0.1602E+03  0.5348E+02  0.5346E+02  0.1175E+02  0.1175E+02  0.2860E+01  0.2858E+01  0.0000E+00  0.1488E-01  0.0000E+00  0.0000E+00  0.5508E-01  0.5985E-01  0.6212E+00  0.6102E+00  0.6565E+04  0.6550E+04  0.1962E+03  0.7941E+02  0.0000E+00  0.0000E+00  0.0000E+00  0.0000E+00  0.0000E+00  0.0000E+00  0.0000E+00  0.0000E+00  0.0000E+00  0.0000E+00  0.0000E+00  0.0000E+00  0.0000E+00  0.0000E+00  0.0000E+00  0.0000E+00  0.0000E+00  0.5633E+02  0.1181E+02  0.0000E+00  0.0000E+00
REACH    6        0    10  0.5361E+00  0.2921E-01  0.2919E-01  0.1440E-04  0.0000E+00  0.6898E+02  0.1625E+02  0.9243E+02  0.9876E+02  0.9870E+02  0.2161E+02  0.2159E+02  0.6103E+01  0.6101E+01  0.1869E-01  0.5384E-01  0.0000E+00  0.2236E-04  0.1117E+00  0.1284E+00  0.1037E+01  0.1013E+01  0.1224E+05  0.1218E+05  0.2592E+03  0.1835E+03  0.0000E+00  0.0000E+00  0.0000E+00  0.0000E+00  0.0000E+00  0.0000E+00  0.0000E+00  0.0000E+00  0.0000E+00  0.0000E+00  0.0000E+00  0.0000E+00  0.0000E+00  0.0000E+00  0.0000E+00  0.0000E+00  0.0000E+00  0.1048E+03  0.2171E+02  0.0000E+00  0.0000E+00
REACH    7        0    10  0.8570E+00  0.4696E-01  0.4695E-01  0.9438E-05  0.0000E+00  0.7411E+02  0.3802E+02  0.1122E+03  0.1736E+03  0.1736E+03  0.3902E+02  0.3901E+02  0.1039E+02  0.1039E+02  0.7514E-01  0.1064E+00  0.2236E-04  0.5774E-04  0.2912E+00  0.3019E+00  0.1959E+01  0.1944E+01  0.2205E+05  0.2201E+05  0.3494E+03  0.2856E+03  0.0000E+00  0.0000E+00  0.0000E+00  0.0000E+00  0.0000E+00  0.0000E+00  0.0000E+00  0.0000E+00  0.0000E+00  0.0000E+00  0.0000E+00  0.0000E+00  0.0000E+00  0.0000E+00  0.0000E+00  0.0000E+00  0.0000E+00  0.1841E+03  0.3931E+02  0.0000E+00  0.0000E+00
REACH    8        0    10  0.1082E+01  0.5912E-01  0.5910E-01  0.1799E-04  0.0000E+00  0.6819E+02  0.4325E+02  0.1015E+03  0.2071E+03  0.2070E+03  0.4642E+02  0.4639E+02  0.1314E+02  0.1314E+02  0.1088E+00  0.1657E+00  0.5774E-04  0.1240E-03  0.3572E+00  0.3769E+00  0.2270E+01  0.2247E+01  0.2724E+05  0.2718E+05  0.4123E+03  0.3363E+03  0.0000E+00  0.0000E+00  0.0000E+00  0.0000E+00  0.0000E+00  0.0000E+00  0.0000E+00  0.0000E+00  0.0000E+00  0.0000E+00  0.0000E+00  0.0000E+00  0.0000E+00  0.0000E+00  0.0000E+00  0.0000E+00  0.0000E+00  0.2203E+03  0.4677E+02  0.0000E+00  0.0000E+00
REACH    9        0    10  0.1363E+01  0.7439E-01  0.7439E-01  0.7040E-05  0.0000E+00  0.8777E+02  0.5765E+02  0.1065E+03  0.2511E+03  0.2510E+03  0.5608E+02  0.5607E+02  0.1650E+02  0.1650E+02  0.1910E+00  0.2164E+00  0.1240E-03  0.1631E-03  0.4497E+00  0.4584E+00  0.2664E+01  0.2655E+01  0.3429E+05  0.3426E+05  0.4561E+03  0.4334E+03  0.0000E+00  0.0000E+00  0.0000E+00  0.0000E+00  0.0000E+00  0.0000E+00  0.0000E+00  0.0000E+00  0.0000E+00  0.0000E+00  0.0000E+00  0.0000E+00  0.0000E+00  0.0000E+00  0.0000E+00  0.0000E+00  0.0000E+00  0.2677E+03  0.5653E+02  0.0000E+00  0.0000E+00
REACH    1        0    11  0.2442E+00  0.9996E-02  0.9988E-02  0.7513E-05  0.0000E+00  0.3913E+02  0.3913E+02  0.2238E+03  0.3099E+02  0.3097E+02  0.6832E+01  0.6826E+01  0.2456E+01  0.2454E+01  0.0000E+00  0.1515E-01  0.0000E+00  0.0000E+00  0.2082E-01  0.2556E-01  0.1969E+00  0.1911E+00  0.4550E+04  0.4531E+04  0.1707E+03  0.8565E+02  0.0000E+00  0.0000E+00  0.0000E+00  0.0000E+00  0.0000E+00  0.0000E+00  0.0000E+00  0.0000E+00  0.0000E+00  0.0000E+00  0.0000E+00  0.0000E+00  0.0000E+00  0.0000E+00  0.0000E+00  0.0000E+00  0.0000E+00  0.3344E+02  0.6852E+01  0.0000E+00  0.0000E+00
REACH    2        0    11  0.1348E+00  0.5579E-02  0.5578E-02  0.6653E-06  0.0000E+00  0.2095E+02  0.2095E+02  0.2137E+03  0.1869E+02  0.1869E+02  0.4118E+01  0.4118E+01  0.1273E+01  0.1273E+01  0.0000E+00  0.1763E-02  0.0000E+00  0.0000E+00  0.1158E-01  0.1217E-01  0.1319E+00  0.1311E+00  0.2486E+04  0.2484E+04  0.9395E+02  0.4765E+02  0.0000E+00  0.0000E+00  0.0000E+00  0.0000E+00  0.0000E+00  0.0000E+00  0.0000E+00  0.0000E+00  0.0000E+00  0.0000E+00  0.0000E+00  0.0000E+00  0.0000E+00  0.0000E+00  0.0000E+00  0.0000E+00  0.0000E+00  0.1996E+02  0.4130E+01  0.0000E+00  0.0000E+00
REACH    3        0    11  0.1273E+00  0.5210E-02  0.5208E-02  0.2075E-05  0.0000E+00  0.1535E+02  0.1535E+02  0.1684E+03  0.1702E+02  0.1701E+02  0.3706E+01  0.3704E+01  0.1232E+01  0.1232E+01  0.0000E+00  0.3389E-02  0.0000E+00  0.0000E+00  0.9379E-02  0.1038E-01  0.1065E+00  0.1048E+00  0.1879E+04  0.1876E+04  0.8927E+02  0.4487E+02  0.0000E+00  0.0000E+00  0.0000E+00  0.0000E+00  0.0000E+00  0.0000E+00  0.0000E+00  0.0000E+00  0.0000E+00  0.0000E+00  0.0000E+00  0.0000E+00  0.0000E+00  0.0000E+00  0.0000E+00  0.0000E+00  0.0000E+00  0.1825E+02  0.3715E+01  0.0000E+00  0.0000E+00
REACH    4        0    11  0.1895E+00  0.8007E-02  0.8002E-02  0.5506E-05  0.0000E+00  0.3573E+02  0.3573E+02  0.2483E+03  0.4799E+02  0.4797E+02  0.1125E+02  0.1124E+02  0.1713E+01  0.1711E+01  0.0000E+00  0.1721E-01  0.0000E+00  0.0000E+00  0.3205E-01  0.3809E-01  0.5081E+00  0.4947E+00  0.4801E+04  0.4785E+04  0.1253E+03  0.6399E+02  0.0000E+00  0.0000E+00  0.0000E+00  0.0000E+00  0.0000E+00  0.0000E+00  0.0000E+00  0.0000E+00  0.0000E+00  0.0000E+00  0.0000E+00  0.0000E+00  0.0000E+00  0.0000E+00  0.0000E+00  0.0000E+00  0.0000E+00  0.4970E+02  0.1128E+02  0.0000E+00  0.0000E+00
REACH    5        0    11  0.2556E+00  0.1053E-01  0.1053E-01  0.6390E-05  0.0000E+00  0.3314E+02  0.3314E+02  0.1754E+03  0.4481E+02  0.4479E+02  0.9887E+01  0.9881E+01  0.2461E+01  0.2460E+01  0.0000E+00  0.1454E-01  0.0000E+00  0.0000E+00  0.2644E-01  0.3110E-01  0.3909E+00  0.3820E+00  0.4827E+04  0.4814E+04  0.1679E+03  0.8370E+02  0.0000E+00  0.0000E+00  0.0000E+00  0.0000E+00  0.0000E+00  0.0000E+00  0.0000E+00  0.0000E+00  0.0000E+00  0.0000E+00  0.0000E+00  0.0000E+00  0.0000E+00  0.0000E+00  0.0000E+00  0.0000E+00  0.0000E+00  0.4726E+02  0.9912E+01  0.0000E+00  0.0000E+00
REACH    6        0    11  0.5361E+00  0.2191E-01  0.2190E-01  0.1152E-04  0.0000E+00  0.6471E+02  0.1202E+02  0.1011E+03  0.8134E+02  0.8130E+02  0.1784E+02  0.1782E+02  0.5224E+01  0.5222E+01  0.1793E-01  0.5144E-01  0.0000E+00  0.1630E-04  0.5480E-01  0.6597E-01  0.6049E+00  0.5925E+00  0.8663E+04  0.8632E+04  0.2358E+03  0.1822E+03  0.0000E+00  0.0000E+00  0.0000E+00  0.0000E+00  0.0000E+00  0.0000E+00  0.0000E+00  0.0000E+00  0.0000E+00  0.0000E+00  0.0000E+00  0.0000E+00  0.0000E+00  0.0000E+00  0.0000E+00  0.0000E+00  0.0000E+00  0.8657E+02  0.1789E+02  0.0000E+00  0.0000E+00
REACH    7        0    11  0.8570E+00  0.3533E-01  0.3532E-01  0.8852E-05  0.0000E+00  0.6759E+02  0.2347E+02  0.1169E+03  0.1494E+03  0.1493E+03  0.3373E+02  0.3372E+02  0.8643E+01  0.8641E+01  0.6865E-01  0.9698E-01  0.1630E-04  0.3865E-04  0.1440E+00  0.1538E+00  0.1278E+01  0.1266E+01  0.1602E+05  0.1599E+05  0.3351E+03  0.2904E+03  0.0000E+00  0.0000E+00  0.0000E+00  0.0000E+00  0.0000E+00  0.0000E+00  0.0000E+00  0.0000E+00  0.0000E+00  0.0000E+00  0.0000E+00  0.0000E+00  0.0000E+00  0.0000E+00  0.0000E+00  0.0000E+00  0.0000E+00  0.1581E+03  0.3387E+02  0.0000E+00  0.0000E+00
REACH    8        0    11  0.1082E+01  0.4436E-01  0.4434E-01  0.1460E-04  0.0000E+00  0.5037E+02  0.2551E+02  0.1062E+03  0.1770E+03  0.1769E+03  0.3982E+02  0.3980E+02  0.1093E+02  0.1093E+02  0.9875E-01  0.1526E+00  0.3865E-04  0.7943E-04  0.1789E+00  0.1975E+00  0.1444E+01  0.1425E+01  0.1950E+05  0.1945E+05  0.3983E+03  0.3335E+03  0.0000E+00  0.0000E+00  0.0000E+00  0.0000E+00  0.0000E+00  0.0000E+00  0.0000E+00  0.0000E+00  0.0000E+00  0.0000E+00  0.0000E+00  0.0000E+00  0.0000E+00  0.0000E+00  0.0000E+00  0.0000E+00  0.0000E+00  0.1880E+03  0.4000E+02  0.0000E+00  0.0000E+00
REACH    9        0    11  0.1363E+01  0.5578E-01  0.5577E-01  0.6621E-05  0.0000E+00  0.6658E+02  0.3449E+02  0.1104E+03  0.2116E+03  0.2116E+03  0.4743E+02  0.4742E+02  0.1376E+02  0.1376E+02  0.1678E+00  0.1908E+00  0.7943E-04  0.1024E-03  0.2317E+00  0.2396E+00  0.1643E+01  0.1636E+01  0.2423E+05  0.2421E+05  0.4447E+03  0.4294E+03  0.0000E+00  0.0000E+00  0.0000E+00  0.0000E+00  0.0000E+00  0.0000E+00  0.0000E+00  0.0000E+00  0.0000E+00  0.0000E+00  0.0000E+00  0.0000E+00  0.0000E+00  0.0000E+00  0.0000E+00  0.0000E+00  0.0000E+00  0.2256E+03  0.4766E+02  0.0000E+00  0.0000E+00
REACH    1        0    12  0.2442E+00  0.1863E-01  0.1862E-01  0.7581E-05  0.0000E+00  0.1355E+03  0.1355E+03  0.6095E+03  0.8863E+02  0.8858E+02  0.1950E+02  0.1949E+02  0.5829E+01  0.5827E+01  0.0000E+00  0.3579E-01  0.0000E+00  0.0000E+00  0.3329E-01  0.4553E-01  0.6177E+00  0.6024E+00  0.1437E+05  0.1431E+05  0.3338E+03  0.1699E+03  0.0000E+00  0.0000E+00  0.0000E+00  0.0000E+00  0.0000E+00  0.0000E+00  0.0000E+00  0.0000E+00  0.0000E+00  0.0000E+00  0.0000E+00  0.0000E+00  0.0000E+00  0.0000E+00  0.0000E+00  0.0000E+00  0.0000E+00  0.9444E+02  0.1953E+02  0.0000E+00  0.0000E+00
REACH    2        0    12  0.1348E+00  0.1035E-01  0.1035E-01  0.8355E-06  0.0000E+00  0.7333E+02  0.7333E+02  0.5900E+03  0.5472E+02  0.5471E+02  0.1207E+02  0.1207E+02  0.3087E+01  0.3087E+01  0.0000E+00  0.4987E-02  0.0000E+00  0.0000E+00  0.1966E-01  0.2142E-01  0.4301E+00  0.4274E+00  0.7978E+04  0.7970E+04  0.1829E+03  0.9418E+02  0.0000E+00  0.0000E+00  0.0000E+00  0.0000E+00  0.0000E+00  0.0000E+00  0.0000E+00  0.0000E+00  0.0000E+00  0.0000E+00  0.0000E+00  0.0000E+00  0.0000E+00  0.0000E+00  0.0000E+00  0.0000E+00  0.0000E+00  0.5780E+02  0.1209E+02  0.0000E+00  0.0000E+00
REACH    3        0    12  0.1273E+00  0.9706E-02  0.9704E-02  0.2119E-05  0.0000E+00  0.5354E+02  0.5354E+02  0.4620E+03  0.4948E+02  0.4946E+02  0.1077E+02  0.1077E+02  0.2930E+01  0.2930E+01  0.0000E+00  0.7701E-02  0.0000E+00  0.0000E+00  0.1593E-01  0.1848E-01  0.3461E+00  0.3417E+00  0.6006E+04  0.5997E+04  0.1743E+03  0.9078E+02  0.0000E+00  0.0000E+00  0.0000E+00  0.0000E+00  0.0000E+00  0.0000E+00  0.0000E+00  0.0000E+00  0.0000E+00  0.0000E+00  0.0000E+00  0.0000E+00  0.0000E+00  0.0000E+00  0.0000E+00  0.0000E+00  0.0000E+00  0.5240E+02  0.1079E+02  0.0000E+00  0.0000E+00
REACH    4        0    12  0.1895E+00  0.1476E-01  0.1476E-01  0.5594E-05  0.0000E+00  0.1296E+03  0.1296E+03  0.7227E+03  0.1471E+03  0.1470E+03  0.3457E+02  0.3455E+02  0.4356E+01  0.4354E+01  0.0000E+00  0.4585E-01  0.0000E+00  0.0000E+00  0.5301E-01  0.7021E-01  0.1631E+01  0.1595E+01  0.1552E+05  0.1548E+05  0.2455E+03  0.1254E+03  0.0000E+00  0.0000E+00  0.0000E+00  0.0000E+00  0.0000E+00  0.0000E+00  0.0000E+00  0.0000E+00  0.0000E+00  0.0000E+00  0.0000E+00  0.0000E+00  0.0000E+00  0.0000E+00  0.0000E+00  0.0000E+00  0.0000E+00  0.1514E+03  0.3462E+02  0.0000E+00  0.0000E+00
REACH    5        0    12  0.2556E+00  0.1954E-01  0.1953E-01  0.6337E-05  0.0000E+00  0.1138E+03  0.1138E+03  0.4792E+03  0.1315E+03  0.1315E+03  0.2908E+02  0.2906E+02  0.5830E+01  0.5829E+01  0.0000E+00  0.3463E-01  0.0000E+00  0.0000E+00  0.4517E-01  0.5718E-01  0.1260E+01  0.1236E+01  0.1507E+05  0.1503E+05  0.3285E+03  0.1661E+03  0.0000E+00  0.0000E+00  0.0000E+00  0.0000E+00  0.0000E+00  0.0000E+00  0.0000E+00  0.0000E+00  0.0000E+00  0.0000E+00  0.0000E+00  0.0000E+00  0.0000E+00  0.0000E+00  0.0000E+00  0.0000E+00  0.0000E+00  0.1373E+03  0.2912E+02  0.0000E+00  0.0000E+00
REACH    6        0    12  0.5361E+00  0.4076E-01  0.4075E-01  0.1154E-04  0.0000E+00  0.2239E+03  0.2647E+02  0.1385E+03  0.2382E+03  0.2381E+03  0.5229E+02  0.5225E+02  0.1232E+02  0.1231E+02  0.4233E-01  0.1245E+00  0.0000E+00  0.4047E-05  0.9803E-01  0.1281E+00  0.1961E+01  0.1927E+01  0.2734E+05  0.2725E+05  0.4666E+03  0.3627E+03  0.0000E+00  0.0000E+00  0.0000E+00  0.0000E+00  0.0000E+00  0.0000E+00  0.0000E+00  0.0000E+00  0.0000E+00  0.0000E+00  0.0000E+00  0.0000E+00  0.0000E+00  0.0000E+00  0.0000E+00  0.0000E+00  0.0000E+00  0.2505E+03  0.5238E+02  0.0000E+00  0.0000E+00
REACH    7        0    12  0.8570E+00  0.6551E-01  0.6550E-01  0.8713E-05  0.0000E+00  0.2233E+03  0.5036E+02  0.1623E+03  0.4434E+03  0.4433E+03  0.1003E+03  0.1002E+03  0.2046E+02  0.2046E+02  0.1704E+00  0.2451E+00  0.4047E-05  0.7647E-05  0.2562E+00  0.2833E+00  0.4072E+01  0.4039E+01  0.5056E+05  0.5048E+05  0.6611E+03  0.5712E+03  0.0000E+00  0.0000E+00  0.0000E+00  0.0000E+00  0.0000E+00  0.0000E+00  0.0000E+00  0.0000E+00  0.0000E+00  0.0000E+00  0.0000E+00  0.0000E+00  0.0000E+00  0.0000E+00  0.0000E+00  0.0000E+00  0.0000E+00  0.4640E+03  0.1005E+03  0.0000E+00  0.0000E+00
REACH    8        0    12  0.1082E+01  0.8244E-01  0.8242E-01  0.1437E-04  0.0000E+00  0.1408E+03  0.5712E+02  0.1480E+03  0.5249E+03  0.5247E+03  0.1182E+03  0.1182E+03  0.2594E+02  0.2594E+02  0.2501E+00  0.3878E+00  0.7647E-05  0.1942E-04  0.3258E+00  0.3759E+00  0.4596E+01  0.4547E+01  0.6086E+05  0.6071E+05  0.7876E+03  0.6942E+03  0.0000E+00  0.0000E+00  0.0000E+00  0.0000E+00  0.0000E+00  0.0000E+00  0.0000E+00  0.0000E+00  0.0000E+00  0.0000E+00  0.0000E+00  0.0000E+00  0.0000E+00  0.0000E+00  0.0000E+00  0.0000E+00  0.0000E+00  0.5511E+03  0.1185E+03  0.0000E+00  0.0000E+00
REACH    9        0    12  0.1363E+01  0.1037E+00  0.1037E+00  0.6482E-05  0.0000E+00  0.1994E+03  0.7462E+02  0.1539E+03  0.6250E+03  0.6249E+03  0.1402E+03  0.1401E+03  0.3260E+02  0.3260E+02  0.4236E+00  0.4834E+00  0.1942E-04  0.2772E-04  0.4379E+00  0.4595E+00  0.5236E+01  0.5216E+01  0.7584E+05  0.7577E+05  0.9136E+03  0.8850E+03  0.0000E+00  0.0000E+00  0.0000E+00  0.0000E+00  0.0000E+00  0.0000E+00  0.0000E+00  0.0000E+00  0.0000E+00  0.0000E+00  0.0000E+00  0.0000E+00  0.0000E+00  0.0000E+00  0.0000E+00  0.0000E+00  0.0000E+00  0.6580E+03  0.1406E+03  0.0000E+00  0.0000E+00
REACH    1        0  2013  0.2442E+00  0.1672E-01  0.1672E-01  0.7445E-05  0.0000E+00  0.7979E+03  0.7979E+03  0.2574E+03  0.9907E+03  0.9899E+03  0.2178E+03  0.2175E+03  0.5355E+02  0.5353E+02  0.0000E+00  0.5729E+00  0.0000E+00  0.0000E+00  0.6632E+00  0.8618E+00  0.1011E+02  0.9791E+01  0.1005E+06  0.9994E+05  0.3467E+04  0.1974E+04  0.0000E+00  0.0000E+00  0.0000E+00  0.0000E+00  0.0000E+00  0.0000E+00  0.0000E+00  0.0000E+00  0.0000E+00  0.0000E+00  0.0000E+00  0.0000E+00  0.0000E+00  0.0000E+00  0.0000E+00  0.0000E+00  0.0000E+00  0.1044E+04  0.2184E+03  0.0000E+00  0.0000E+00
REACH    2        0  2013  0.1348E+00  0.9267E-02  0.9266E-02  0.6135E-06  0.0000E+00  0.4197E+03  0.4197E+03  0.2426E+03  0.5404E+03  0.5403E+03  0.1189E+03  0.1189E+03  0.2380E+02  0.2380E+02  0.0000E+00  0.4822E-01  0.0000E+00  0.0000E+00  0.3968E+00  0.4136E+00  0.5517E+01  0.5488E+01  0.5332E+05  0.5328E+05  0.1904E+04  0.1192E+04  0.0000E+00  0.0000E+00  0.0000E+00  0.0000E+00  0.0000E+00  0.0000E+00  0.0000E+00  0.0000E+00  0.0000E+00  0.0000E+00  0.0000E+00  0.0000E+00  0.0000E+00  0.0000E+00  0.0000E+00  0.0000E+00  0.0000E+00  0.5642E+03  0.1193E+03  0.0000E+00  0.0000E+00
REACH    3        0  2013  0.1273E+00  0.8717E-02  0.8715E-02  0.2009E-05  0.0000E+00  0.3132E+03  0.3132E+03  0.1934E+03  0.4961E+03  0.4959E+03  0.1087E+03  0.1087E+03  0.2255E+02  0.2254E+02  0.0000E+00  0.1035E+00  0.0000E+00  0.0000E+00  0.3269E+00  0.3617E+00  0.4884E+01  0.4812E+01  0.4142E+05  0.4133E+05  0.1817E+04  0.1151E+04  0.0000E+00  0.0000E+00  0.0000E+00  0.0000E+00  0.0000E+00  0.0000E+00  0.0000E+00  0.0000E+00  0.0000E+00  0.0000E+00  0.0000E+00  0.0000E+00  0.0000E+00  0.0000E+00  0.0000E+00  0.0000E+00  0.0000E+00  0.5186E+03  0.1090E+03  0.0000E+00  0.0000E+00
REACH    4        0  2013  0.1895E+00  0.1314E-01  0.1313E-01  0.5340E-05  0.0000E+00  0.5606E+03  0.5606E+03  0.2315E+03  0.6765E+03  0.6761E+03  0.1536E+03  0.1535E+03  0.3112E+02  0.3110E+02  0.0000E+00  0.2825E+00  0.0000E+00  0.0000E+00  0.1126E+01  0.1224E+01  0.7807E+01  0.7606E+01  0.7187E+05  0.7157E+05  0.2539E+04  0.1371E+04  0.0000E+00  0.0000E+00  0.0000E+00  0.0000E+00  0.0000E+00  0.0000E+00  0.0000E+00  0.0000E+00  0.0000E+00  0.0000E+00  0.0000E+00  0.0000E+00  0.0000E+00  0.0000E+00  0.0000E+00  0.0000E+00  0.0000E+00  0.7075E+03  0.1547E+03  0.0000E+00  0.0000E+00
REACH    5        0  2013  0.2556E+00  0.1746E-01  0.1745E-01  0.5689E-05  0.0000E+00  0.5909E+03  0.5909E+03  0.1838E+03  0.1022E+04  0.1022E+04  0.2249E+03  0.2248E+03  0.4460E+02  0.4458E+02  0.0000E+00  0.2581E+00  0.0000E+00  0.0000E+00  0.8617E+00  0.9476E+00  0.1141E+02  0.1124E+02  0.8748E+05  0.8728E+05  0.3435E+04  0.1785E+04  0.0000E+00  0.0000E+00  0.0000E+00  0.0000E+00  0.0000E+00  0.0000E+00  0.0000E+00  0.0000E+00  0.0000E+00  0.0000E+00  0.0000E+00  0.0000E+00  0.0000E+00  0.0000E+00  0.0000E+00  0.0000E+00  0.0000E+00  0.1067E+04  0.2257E+03  0.0000E+00  0.0000E+00
REACH    6        0  2013  0.5361E+00  0.3659E-01  0.3658E-01  0.1127E-04  0.0000E+00  0.1234E+04  0.2512E+03  0.1110E+03  0.2070E+04  0.2069E+04  0.4543E+03  0.4539E+03  0.9438E+02  0.9436E+02  0.3616E+00  0.1058E+01  0.0000E+00  0.2485E-03  0.1759E+01  0.2096E+01  0.2130E+02  0.2088E+02  0.1720E+06  0.1712E+06  0.5141E+04  0.4145E+04  0.0000E+00  0.0000E+00  0.0000E+00  0.0000E+00  0.0000E+00  0.0000E+00  0.0000E+00  0.0000E+00  0.0000E+00  0.0000E+00  0.0000E+00  0.0000E+00  0.0000E+00  0.0000E+00  0.0000E+00  0.0000E+00  0.0000E+00  0.2164E+04  0.4560E+03  0.0000E+00  0.0000E+00
REACH    7        0  2013  0.8570E+00  0.5873E-01  0.5872E-01  0.7842E-05  0.0000E+00  0.1198E+04  0.5275E+03  0.1320E+03  0.3262E+04  0.3261E+04  0.7225E+03  0.7223E+03  0.1883E+03  0.1883E+03  0.1341E+01  0.1948E+01  0.2485E-03  0.4389E-03  0.4198E+01  0.4410E+01  0.3522E+02  0.3497E+02  0.2955E+06  0.2949E+06  0.7322E+04  0.6250E+04  0.0000E+00  0.0000E+00  0.0000E+00  0.0000E+00  0.0000E+00  0.0000E+00  0.0000E+00  0.0000E+00  0.0000E+00  0.0000E+00  0.0000E+00  0.0000E+00  0.0000E+00  0.0000E+00  0.0000E+00  0.0000E+00  0.0000E+00  0.3452E+04  0.7267E+03  0.0000E+00  0.0000E+00
REACH    8        0  2013  0.1082E+01  0.7400E-01  0.7399E-01  0.1372E-04  0.0000E+00  0.1071E+04  0.5541E+03  0.1189E+03  0.4058E+04  0.4056E+04  0.8970E+03  0.8964E+03  0.2374E+03  0.2374E+03  0.1996E+01  0.3350E+01  0.4389E-03  0.1101E-02  0.5203E+01  0.5679E+01  0.4309E+02  0.4259E+02  0.3693E+06  0.3680E+06  0.8732E+04  0.7182E+04  0.0000E+00  0.0000E+00  0.0000E+00  0.0000E+00  0.0000E+00  0.0000E+00  0.0000E+00  0.0000E+00  0.0000E+00  0.0000E+00  0.0000E+00  0.0000E+00  0.0000E+00  0.0000E+00  0.0000E+00  0.0000E+00  0.0000E+00  0.4297E+04  0.9021E+03  0.0000E+00  0.0000E+00
REACH    9        0  2013  0.1363E+01  0.9318E-01  0.9318E-01  0.5942E-05  0.0000E+00  0.1391E+04  0.7549E+03  0.1244E+03  0.5145E+04  0.5144E+04  0.1135E+04  0.1135E+04  0.2973E+03  0.2972E+03  0.3923E+01  0.4493E+01  0.1101E-02  0.1236E-02  0.6786E+01  0.6986E+01  0.5333E+02  0.5314E+02  0.4735E+06  0.4730E+06  0.9699E+04  0.9283E+04  0.0000E+00  0.0000E+00  0.0000E+00  0.0000E+00  0.0000E+00  0.0000E+00  0.0000E+00  0.0000E+00  0.0000E+00  0.0000E+00  0.0000E+00  0.0000E+00  0.0000E+00  0.0000E+00  0.0000E+00  0.0000E+00  0.0000E+00  0.5446E+04  0.1142E+04  0.0000E+00  0.0000E+00
REACH    1        0     1  0.2442E+00  0.4098E-01  0.4097E-01  0.1092E-04  0.0000E+00  0.2911E+03  0.2911E+03  0.9591E+03  0.6446E+03  0.6441E+03  0.1416E+03  0.1414E+03  0.9913E+01  0.9909E+01  0.0000E+00  0.3256E+00  0.0000E+00  0.0000E+00  0.2273E+00  0.3451E+00  0.6468E+01  0.6294E+01  0.3459E+05  0.3442E+05  0.7145E+03  0.4428E+03  0.0000E+00  0.0000E+00  0.0000E+00  0.0000E+00  0.0000E+00  0.0000E+00  0.0000E+00  0.0000E+00  0.0000E+00  0.0000E+00  0.0000E+00  0.0000E+00  0.0000E+00  0.0000E+00  0.0000E+00  0.0000E+00  0.0000E+00  0.6543E+03  0.1418E+03  0.0000E+00  0.0000E+00
REACH    2        0     1  0.1348E+00  0.2269E-01  0.2269E-01  0.1379E-05  0.0000E+00  0.1585E+03  0.1585E+03  0.9408E+03  0.3744E+03  0.3744E+03  0.8263E+02  0.8261E+02  0.5265E+01  0.5265E+01  0.0000E+00  0.3225E-01  0.0000E+00  0.0000E+00  0.1360E+00  0.1477E+00  0.3920E+01  0.3900E+01  0.1937E+05  0.1935E+05  0.3897E+03  0.2438E+03  0.0000E+00  0.0000E+00  0.0000E+00  0.0000E+00  0.0000E+00  0.0000E+00  0.0000E+00  0.0000E+00  0.0000E+00  0.0000E+00  0.0000E+00  0.0000E+00  0.0000E+00  0.0000E+00  0.0000E+00  0.0000E+00  0.0000E+00  0.3797E+03  0.8276E+02  0.0000E+00  0.0000E+00
REACH    3        0     1  0.1273E+00  0.2135E-01  0.2134E-01  0.3146E-05  0.0000E+00  0.1157E+03  0.1157E+03  0.7300E+03  0.3161E+03  0.3160E+03  0.6937E+02  0.6934E+02  0.5066E+01  0.5065E+01  0.0000E+00  0.6844E-01  0.0000E+00  0.0000E+00  0.1203E+00  0.1450E+00  0.3093E+01  0.3045E+01  0.1462E+05  0.1459E+05  0.3728E+03  0.2326E+03  0.0000E+00  0.0000E+00  0.0000E+00  0.0000E+00  0.0000E+00  0.0000E+00  0.0000E+00  0.0000E+00  0.0000E+00  0.0000E+00  0.0000E+00  0.0000E+00  0.0000E+00  0.0000E+00  0.0000E+00  0.0000E+00  0.0000E+00  0.3211E+03  0.6948E+02  0.0000E+00  0.0000E+00
REACH    4        0     1  0.1895E+00  0.3193E-01  0.3192E-01  0.8145E-05  0.0000E+00  0.2903E+03  0.2903E+03  0.1267E+04  0.7721E+03  0.7716E+03  0.1752E+03  0.1750E+03  0.6435E+01  0.6430E+01  0.0000E+00  0.3297E+00  0.0000E+00  0.0000E+00  0.2623E+00  0.3854E+00  0.1006E+02  0.9797E+01  0.3801E+05  0.3786E+05  0.5158E+03  0.3285E+03  0.0000E+00  0.0000E+00  0.0000E+00  0.0000E+00  0.0000E+00  0.0000E+00  0.0000E+00  0.0000E+00  0.0000E+00  0.0000E+00  0.0000E+00  0.0000E+00  0.0000E+00  0.0000E+00  0.0000E+00  0.0000E+00  0.0000E+00  0.7783E+03  0.1754E+03  0.0000E+00  0.0000E+00
REACH    5        0     1  0.2556E+00  0.4289E-01  0.4288E-01  0.7934E-05  0.0000E+00  0.2237E+03  0.2237E+03  0.7022E+03  0.7105E+03  0.7102E+03  0.1571E+03  0.1570E+03  0.1063E+02  0.1063E+02  0.0000E+00  0.2010E+00  0.0000E+00  0.0000E+00  0.2849E+00  0.3578E+00  0.8117E+01  0.7971E+01  0.3164E+05  0.3155E+05  0.7154E+03  0.4473E+03  0.0000E+00  0.0000E+00  0.0000E+00  0.0000E+00  0.0000E+00  0.0000E+00  0.0000E+00  0.0000E+00  0.0000E+00  0.0000E+00  0.0000E+00  0.0000E+00  0.0000E+00  0.0000E+00  0.0000E+00  0.0000E+00  0.0000E+00  0.7210E+03  0.1573E+03  0.0000E+00  0.0000E+00
REACH    6        0     1  0.5361E+00  0.8963E-01  0.8961E-01  0.1626E-04  0.0000E+00  0.4621E+03  0.5824E+02  0.1654E+03  0.1380E+04  0.1379E+04  0.3038E+03  0.3035E+03  0.2180E+02  0.2179E+02  0.2694E+00  0.7799E+00  0.0000E+00  0.1651E-03  0.6529E+00  0.8741E+00  0.1438E+02  0.1412E+02  0.6159E+05  0.6132E+05  0.1130E+04  0.9558E+03  0.0000E+00  0.0000E+00  0.0000E+00  0.0000E+00  0.0000E+00  0.0000E+00  0.0000E+00  0.0000E+00  0.0000E+00  0.0000E+00  0.0000E+00  0.0000E+00  0.0000E+00  0.0000E+00  0.0000E+00  0.0000E+00  0.0000E+00  0.1401E+04  0.3044E+03  0.0000E+00  0.0000E+00
REACH    7        0     1  0.8570E+00  0.1435E+00  0.1435E+00  0.1066E-04  0.0000E+00  0.4908E+03  0.1274E+03  0.2084E+03  0.2512E+04  0.2512E+04  0.5586E+03  0.5584E+03  0.3400E+02  0.3399E+02  0.1110E+01  0.1564E+01  0.1651E-03  0.3033E-03  0.1454E+01  0.1620E+01  0.2805E+02  0.2784E+02  0.1173E+06  0.1171E+06  0.1656E+04  0.1506E+04  0.0000E+00  0.0000E+00  0.0000E+00  0.0000E+00  0.0000E+00  0.0000E+00  0.0000E+00  0.0000E+00  0.0000E+00  0.0000E+00  0.0000E+00  0.0000E+00  0.0000E+00  0.0000E+00  0.0000E+00  0.0000E+00  0.0000E+00  0.2547E+04  0.5601E+03  0.0000E+00  0.0000E+00
REACH    8        0     1  0.1082E+01  0.1808E+00  0.1808E+00  0.1978E-04  0.0000E+00  0.3189E+03  0.1235E+03  0.1778E+03  0.3034E+04  0.3033E+04  0.6731E+03  0.6727E+03  0.4328E+02  0.4326E+02  0.1596E+01  0.2628E+01  0.3033E-03  0.8867E-03  0.1871E+01  0.2248E+01  0.3308E+02  0.3271E+02  0.1410E+06  0.1405E+06  0.2016E+04  0.1786E+04  0.0000E+00  0.0000E+00  0.0000E+00  0.0000E+00  0.0000E+00  0.0000E+00  0.0000E+00  0.0000E+00  0.0000E+00  0.0000E+00  0.0000E+00  0.0000E+00  0.0000E+00  0.0000E+00  0.0000E+00  0.0000E+00  0.0000E+00  0.3078E+04  0.6749E+03  0.0000E+00  0.0000E+00
REACH    9        0     1  0.1363E+01  0.2278E+00  0.2278E+00  0.7858E-05  0.0000E+00  0.4291E+03  0.1714E+03  0.1899E+03  0.3737E+04  0.3736E+04  0.8272E+03  0.8270E+03  0.5457E+02  0.5456E+02  0.2954E+01  0.3398E+01  0.8867E-03  0.1087E-02  0.2658E+01  0.2820E+01  0.3957E+02  0.3942E+02  0.1769E+06  0.1767E+06  0.2338E+04  0.2287E+04  0.0000E+00  0.0000E+00  0.0000E+00  0.0000E+00  0.0000E+00  0.0000E+00  0.0000E+00  0.0000E+00  0.0000E+00  0.0000E+00  0.0000E+00  0.0000E+00  0.0000E+00  0.0000E+00  0.0000E+00  0.0000E+00  0.0000E+00  0.3794E+04  0.8298E+03  0.0000E+00  0.0000E+00
REACH    1        0     2  0.2442E+00  0.2580E-01  0.2579E-01  0.1045E-04  0.0000E+00  0.1202E+02  0.1202E+02  0.1556E+03  0.1815E+02  0.1813E+02  0.3982E+01  0.3976E+01  0.1210E+02  0.1209E+02  0.0000E+00  0.1206E-01  0.0000E+00  0.0000E+00  0.1611E-01  0.1974E-01  0.1383E+00  0.1320E+00  0.1174E+04  0.1168E+04  0.4163E+03  0.1690E+03  0.0000E+00  0.0000E+00  0.0000E+00  0.0000E+00  0.0000E+00  0.0000E+00  0.0000E+00  0.0000E+00  0.0000E+00  0.0000E+00  0.0000E+00  0.0000E+00  0.0000E+00  0.0000E+00  0.0000E+00  0.0000E+00  0.0000E+00  0.3024E+02  0.3996E+01  0.0000E+00  0.0000E+00
REACH    2        0     2  0.1348E+00  0.1427E-01  0.1427E-01  0.1047E-05  0.0000E+00  0.5776E+01  0.5776E+01  0.1426E+03  0.1077E+02  0.1077E+02  0.2391E+01  0.2390E+01  0.4080E+00  0.4080E+00  0.0000E+00  0.1058E-02  0.0000E+00  0.0000E+00  0.1205E-01  0.1238E-01  0.4589E-01  0.4554E-01  0.5091E+03  0.5086E+03  0.2268E+03  0.1389E+03  0.0000E+00  0.0000E+00  0.0000E+00  0.0000E+00  0.0000E+00  0.0000E+00  0.0000E+00  0.0000E+00  0.0000E+00  0.0000E+00  0.0000E+00  0.0000E+00  0.0000E+00  0.0000E+00  0.0000E+00  0.0000E+00  0.0000E+00  0.1118E+02  0.2403E+01  0.0000E+00  0.0000E+00
REACH    3        0     2  0.1273E+00  0.1344E-01  0.1344E-01  0.2531E-05  0.0000E+00  0.3995E+01  0.3995E+01  0.1073E+03  0.8239E+01  0.8235E+01  0.1813E+01  0.1811E+01  0.1845E+00  0.1844E+00  0.0000E+00  0.2507E-02  0.0000E+00  0.0000E+00  0.9326E-02  0.1002E-01  0.2609E-01  0.2542E-01  0.3424E+03  0.3416E+03  0.2215E+03  0.1469E+03  0.0000E+00  0.0000E+00  0.0000E+00  0.0000E+00  0.0000E+00  0.0000E+00  0.0000E+00  0.0000E+00  0.0000E+00  0.0000E+00  0.0000E+00  0.0000E+00  0.0000E+00  0.0000E+00  0.0000E+00  0.0000E+00  0.0000E+00  0.8422E+01  0.1821E+01  0.0000E+00  0.0000E+00
REACH    4        0     2  0.1895E+00  0.2034E-01  0.2033E-01  0.6575E-05  0.0000E+00  0.1607E+02  0.1607E+02  0.2514E+03  0.3486E+02  0.3484E+02  0.7980E+01  0.7972E+01  0.2596E+00  0.2595E+00  0.0000E+00  0.1464E-01  0.0000E+00  0.0000E+00  0.1634E-01  0.2129E-01  0.2703E+00  0.2591E+00  0.1948E+04  0.1941E+04  0.2802E+03  0.1145E+03  0.0000E+00  0.0000E+00  0.0000E+00  0.0000E+00  0.0000E+00  0.0000E+00  0.0000E+00  0.0000E+00  0.0000E+00  0.0000E+00  0.0000E+00  0.0000E+00  0.0000E+00  0.0000E+00  0.0000E+00  0.0000E+00  0.0000E+00  0.3511E+02  0.7993E+01  0.0000E+00  0.0000E+00
REACH    5        0     2  0.2556E+00  0.2687E-01  0.2686E-01  0.7419E-05  0.0000E+00  0.9787E+01  0.9787E+01  0.1205E+03  0.2347E+02  0.2346E+02  0.5223E+01  0.5218E+01  0.6331E+00  0.6329E+00  0.0000E+00  0.9770E-02  0.0000E+00  0.0000E+00  0.1905E-01  0.2202E-01  0.1172E+00  0.1128E+00  0.1095E+04  0.1092E+04  0.4230E+03  0.1948E+03  0.0000E+00  0.0000E+00  0.0000E+00  0.0000E+00  0.0000E+00  0.0000E+00  0.0000E+00  0.0000E+00  0.0000E+00  0.0000E+00  0.0000E+00  0.0000E+00  0.0000E+00  0.0000E+00  0.0000E+00  0.0000E+00  0.0000E+00  0.2410E+02  0.5240E+01  0.0000E+00  0.0000E+00
REACH    6        0     2  0.5361E+00  0.5642E-01  0.5641E-01  0.1352E-04  0.0000E+00  0.1800E+02  0.3488E+02  0.1620E+03  0.4068E+02  0.4065E+02  0.9009E+01  0.8999E+01  0.1119E+01  0.1119E+01  0.1228E-01  0.3465E-01  0.0000E+00  0.5622E-05  0.4699E-01  0.5422E-01  0.1696E+00  0.1637E+00  0.1799E+04  0.1790E+04  0.6125E+03  0.4989E+03  0.0000E+00  0.0000E+00  0.0000E+00  0.0000E+00  0.0000E+00  0.0000E+00  0.0000E+00  0.0000E+00  0.0000E+00  0.0000E+00  0.0000E+00  0.0000E+00  0.0000E+00  0.0000E+00  0.0000E+00  0.0000E+00  0.0000E+00  0.4180E+02  0.9053E+01  0.0000E+00  0.0000E+00
REACH    7        0     2  0.8570E+00  0.9069E-01  0.9068E-01  0.1015E-04  0.0000E+00  0.6191E+02  0.6599E+02  0.1884E+03  0.9573E+02  0.9570E+02  0.2146E+02  0.2145E+02  0.3677E+02  0.3676E+02  0.4929E-01  0.7262E-01  0.5622E-05  0.1356E-04  0.8774E-01  0.9558E-01  0.7398E+00  0.7285E+00  0.5236E+04  0.5224E+04  0.8250E+03  0.5396E+03  0.0000E+00  0.0000E+00  0.0000E+00  0.0000E+00  0.0000E+00  0.0000E+00  0.0000E+00  0.0000E+00  0.0000E+00  0.0000E+00  0.0000E+00  0.0000E+00  0.0000E+00  0.0000E+00  0.0000E+00  0.0000E+00  0.0000E+00  0.1325E+03  0.2154E+02  0.0000E+00  0.0000E+00
[...]
REACH    4        0    11  0.1895E+00  0.1881E-01  0.1880E-01  0.9238E-05  0.0000E+00  0.5795E+02  0.5795E+02  0.2795E+03  0.1054E+03  0.1053E+03  0.2283E+02  0.2281E+02  0.5956E+01  0.5953E+01  0.0000E+00  0.5008E-01  0.0000E+00  0.0000E+00  0.8068E-01  0.9799E-01  0.1371E+01  0.1334E+01  0.1007E+05  0.1003E+05  0.2436E+03  0.8808E+02  0.0000E+00  0.0000E+00  0.0000E+00  0.0000E+00  0.0000E+00  0.0000E+00  0.0000E+00  0.0000E+00  0.0000E+00  0.0000E+00  0.0000E+00  0.0000E+00  0.0000E+00  0.0000E+00  0.0000E+00  0.0000E+00  0.0000E+00  0.1113E+03  0.2290E+02  0.0000E+00  0.0000E+00
REACH    5        0    11  0.2556E+00  0.2492E-01  0.2491E-01  0.1053E-04  0.0000E+00  0.5589E+02  0.5589E+02  0.2090E+03  0.1333E+03  0.1332E+03  0.2890E+02  0.2888E+02  0.7800E+01  0.7796E+01  0.0000E+00  0.4626E-01  0.0000E+00  0.0000E+00  0.1098E+00  0.1257E+00  0.1765E+01  0.1731E+01  0.1087E+05  0.1083E+05  0.3233E+03  0.1161E+03  0.0000E+00  0.0000E+00  0.0000E+00  0.0000E+00  0.0000E+00  0.0000E+00  0.0000E+00  0.0000E+00  0.0000E+00  0.0000E+00  0.0000E+00  0.0000E+00  0.0000E+00  0.0000E+00  0.0000E+00  0.0000E+00  0.0000E+00  0.1410E+03  0.2901E+02  0.0000E+00  0.0000E+00
REACH    6        0    11  0.5361E+00  0.5206E-01  0.5204E-01  0.1834E-04  0.0000E+00  0.1128E+03  0.2771E+02  0.1229E+03  0.2710E+03  0.2708E+03  0.5870E+02  0.5864E+02  0.1744E+02  0.1743E+02  0.6024E-01  0.1757E+00  0.0000E+00  0.1126E-04  0.2566E+00  0.3040E+00  0.3257E+01  0.3192E+01  0.2072E+05  0.2062E+05  0.3982E+03  0.2641E+03  0.0000E+00  0.0000E+00  0.0000E+00  0.0000E+00  0.0000E+00  0.0000E+00  0.0000E+00  0.0000E+00  0.0000E+00  0.0000E+00  0.0000E+00  0.0000E+00  0.0000E+00  0.0000E+00  0.0000E+00  0.0000E+00  0.0000E+00  0.2885E+03  0.5894E+02  0.0000E+00  0.0000E+00
REACH    7        0    11  0.8570E+00  0.8365E-01  0.8363E-01  0.1381E-04  0.0000E+00  0.1219E+03  0.5328E+02  0.1419E+03  0.4458E+03  0.4457E+03  0.9705E+02  0.9700E+02  0.2966E+02  0.2965E+02  0.2258E+00  0.3252E+00  0.1126E-04  0.2798E-04  0.5460E+00  0.5810E+00  0.5416E+01  0.5373E+01  0.3691E+05  0.3684E+05  0.5291E+03  0.4098E+03  0.0000E+00  0.0000E+00  0.0000E+00  0.0000E+00  0.0000E+00  0.0000E+00  0.0000E+00  0.0000E+00  0.0000E+00  0.0000E+00  0.0000E+00  0.0000E+00  0.0000E+00  0.0000E+00  0.0000E+00  0.0000E+00  0.0000E+00  0.4756E+03  0.9758E+02  0.0000E+00  0.0000E+00
REACH    8        0    11  0.1082E+01  0.1053E+00  0.1052E+00  0.2247E-04  0.0000E+00  0.1031E+03  0.6129E+02  0.1314E+03  0.5532E+03  0.5529E+03  0.1204E+03  0.1203E+03  0.3784E+02  0.3783E+02  0.3306E+00  0.5201E+00  0.2798E-04  0.5785E-04  0.7038E+00  0.7707E+00  0.6549E+01  0.6477E+01  0.4550E+05  0.4535E+05  0.6092E+03  0.4892E+03  0.0000E+00  0.0000E+00  0.0000E+00  0.0000E+00  0.0000E+00  0.0000E+00  0.0000E+00  0.0000E+00  0.0000E+00  0.0000E+00  0.0000E+00  0.0000E+00  0.0000E+00  0.0000E+00  0.0000E+00  0.0000E+00  0.0000E+00  0.5912E+03  0.1211E+03  0.0000E+00  0.0000E+00
REACH    9        0    11  0.1363E+01  0.1325E+00  0.1325E+00  0.1014E-04  0.0000E+00  0.1354E+03  0.7664E+02  0.1316E+03  0.7025E+03  0.7024E+03  0.1529E+03  0.1529E+03  0.4793E+02  0.4792E+02  0.5933E+00  0.6868E+00  0.5785E-04  0.7688E-04  0.9471E+00  0.9802E+00  0.8143E+01  0.8110E+01  0.5754E+05  0.5747E+05  0.6678E+03  0.6273E+03  0.0000E+00  0.0000E+00  0.0000E+00  0.0000E+00  0.0000E+00  0.0000E+00  0.0000E+00  0.0000E+00  0.0000E+00  0.0000E+00  0.0000E+00  0.0000E+00  0.0000E+00  0.0000E+00  0.0000E+00  0.0000E+00  0.0000E+00  0.7510E+03  0.1538E+03  0.0000E+00  0.0000E+00
REACH    1        0    12  0.2442E+00  0.2589E-01  0.2588E-01  0.7291E-05  0.0000E+00  0.1421E+03  0.1421E+03  0.7361E+03  0.1682E+03  0.1681E+03  0.3674E+02  0.3672E+02  0.8764E+01  0.8762E+01  0.0000E+00  0.6744E-01  0.0000E+00  0.0000E+00  0.6659E-01  0.9028E-01  0.9389E+00  0.9135E+00  0.1450E+05  0.1444E+05  0.4380E+03  0.1440E+03  0.0000E+00  0.0000E+00  0.0000E+00  0.0000E+00  0.0000E+00  0.0000E+00  0.0000E+00  0.0000E+00  0.0000E+00  0.0000E+00  0.0000E+00  0.0000E+00  0.0000E+00  0.0000E+00  0.0000E+00  0.0000E+00  0.0000E+00  0.1769E+03  0.3681E+02  0.0000E+00  0.0000E+00
REACH    2        0    12  0.1348E+00  0.1438E-01  0.1438E-01  0.9578E-06  0.0000E+00  0.7661E+02  0.7661E+02  0.7096E+03  0.9613E+02  0.9612E+02  0.2089E+02  0.2088E+02  0.4485E+01  0.4485E+01  0.0000E+00  0.8541E-02  0.0000E+00  0.0000E+00  0.3546E-01  0.3847E-01  0.5685E+00  0.5651E+00  0.7992E+04  0.7985E+04  0.2390E+03  0.8116E+02  0.0000E+00  0.0000E+00  0.0000E+00  0.0000E+00  0.0000E+00  0.0000E+00  0.0000E+00  0.0000E+00  0.0000E+00  0.0000E+00  0.0000E+00  0.0000E+00  0.0000E+00  0.0000E+00  0.0000E+00  0.0000E+00  0.0000E+00  0.1006E+03  0.2092E+02  0.0000E+00  0.0000E+00
REACH    3        0    12  0.1273E+00  0.1350E-01  0.1350E-01  0.2064E-05  0.0000E+00  0.5575E+02  0.5575E+02  0.5529E+03  0.8220E+02  0.8218E+02  0.1783E+02  0.1782E+02  0.4320E+01  0.4319E+01  0.0000E+00  0.1379E-01  0.0000E+00  0.0000E+00  0.3142E-01  0.3615E-01  0.4521E+00  0.4456E+00  0.5996E+04  0.5987E+04  0.2294E+03  0.7772E+02  0.0000E+00  0.0000E+00  0.0000E+00  0.0000E+00  0.0000E+00  0.0000E+00  0.0000E+00  0.0000E+00  0.0000E+00  0.0000E+00  0.0000E+00  0.0000E+00  0.0000E+00  0.0000E+00  0.0000E+00  0.0000E+00  0.0000E+00  0.8651E+02  0.1786E+02  0.0000E+00  0.0000E+00
REACH    4        0    12  0.1895E+00  0.2047E-01  0.2046E-01  0.5345E-05  0.0000E+00  0.1343E+03  0.1343E+03  0.8708E+03  0.1558E+03  0.1558E+03  0.3379E+02  0.3376E+02  0.5877E+01  0.5876E+01  0.0000E+00  0.5144E-01  0.0000E+00  0.0000E+00  0.5468E-01  0.7258E-01  0.1165E+01  0.1136E+01  0.1533E+05  0.1528E+05  0.3161E+03  0.1032E+03  0.0000E+00  0.0000E+00  0.0000E+00  0.0000E+00  0.0000E+00  0.0000E+00  0.0000E+00  0.0000E+00  0.0000E+00  0.0000E+00  0.0000E+00  0.0000E+00  0.0000E+00  0.0000E+00  0.0000E+00  0.0000E+00  0.0000E+00  0.1617E+03  0.3384E+02  0.0000E+00  0.0000E+00
REACH    5        0    12  0.2556E+00  0.2758E-01  0.2757E-01  0.6036E-05  0.0000E+00  0.1154E+03  0.1154E+03  0.5638E+03  0.1865E+03  0.1864E+03  0.4048E+02  0.4046E+02  0.9117E+01  0.9116E+01  0.0000E+00  0.4854E-01  0.0000E+00  0.0000E+00  0.7629E-01  0.9312E-01  0.1276E+01  0.1250E+01  0.1444E+05  0.1440E+05  0.4325E+03  0.1395E+03  0.0000E+00  0.0000E+00  0.0000E+00  0.0000E+00  0.0000E+00  0.0000E+00  0.0000E+00  0.0000E+00  0.0000E+00  0.0000E+00  0.0000E+00  0.0000E+00  0.0000E+00  0.0000E+00  0.0000E+00  0.0000E+00  0.0000E+00  0.1956E+03  0.4055E+02  0.0000E+00  0.0000E+00
REACH    6        0    12  0.5361E+00  0.5715E-01  0.5714E-01  0.1095E-04  0.0000E+00  0.2299E+03  0.4033E+02  0.1639E+03  0.3596E+03  0.3595E+03  0.7799E+02  0.7793E+02  0.1868E+02  0.1867E+02  0.6234E-01  0.1851E+00  0.0000E+00  0.1055E-04  0.1700E+00  0.2155E+00  0.2174E+01  0.2133E+01  0.2666E+05  0.2657E+05  0.4959E+03  0.3106E+03  0.0000E+00  0.0000E+00  0.0000E+00  0.0000E+00  0.0000E+00  0.0000E+00  0.0000E+00  0.0000E+00  0.0000E+00  0.0000E+00  0.0000E+00  0.0000E+00  0.0000E+00  0.0000E+00  0.0000E+00  0.0000E+00  0.0000E+00  0.3783E+03  0.7815E+02  0.0000E+00  0.0000E+00
REACH    7        0    12  0.8570E+00  0.9152E-01  0.9151E-01  0.8218E-05  0.0000E+00  0.2461E+03  0.7586E+02  0.1914E+03  0.6026E+03  0.6024E+03  0.1313E+03  0.1312E+03  0.3039E+02  0.3039E+02  0.2366E+00  0.3401E+00  0.1055E-04  0.2578E-04  0.3737E+00  0.4103E+00  0.3867E+01  0.3833E+01  0.4992E+05  0.4984E+05  0.6394E+03  0.4822E+03  0.0000E+00  0.0000E+00  0.0000E+00  0.0000E+00  0.0000E+00  0.0000E+00  0.0000E+00  0.0000E+00  0.0000E+00  0.0000E+00  0.0000E+00  0.0000E+00  0.0000E+00  0.0000E+00  0.0000E+00  0.0000E+00  0.0000E+00  0.6332E+03  0.1316E+03  0.0000E+00  0.0000E+00
REACH    8        0    12  0.1082E+01  0.1151E+00  0.1151E+00  0.1359E-04  0.0000E+00  0.1710E+03  0.8502E+02  0.1693E+03  0.7322E+03  0.7319E+03  0.1595E+03  0.1594E+03  0.3867E+02  0.3867E+02  0.3487E+00  0.5447E+00  0.2578E-04  0.5381E-04  0.4822E+00  0.5517E+00  0.4521E+01  0.4468E+01  0.6054E+05  0.6038E+05  0.7280E+03  0.5693E+03  0.0000E+00  0.0000E+00  0.0000E+00  0.0000E+00  0.0000E+00  0.0000E+00  0.0000E+00  0.0000E+00  0.0000E+00  0.0000E+00  0.0000E+00  0.0000E+00  0.0000E+00  0.0000E+00  0.0000E+00  0.0000E+00  0.0000E+00  0.7711E+03  0.1599E+03  0.0000E+00  0.0000E+00
REACH    9        0    12  0.1363E+01  0.1447E+00  0.1447E+00  0.6114E-05  0.0000E+00  0.2341E+03  0.1095E+03  0.1750E+03  0.9156E+03  0.9155E+03  0.1995E+03  0.1994E+03  0.4867E+02  0.4867E+02  0.6121E+00  0.7053E+00  0.5381E-04  0.7318E-04  0.6689E+00  0.7020E+00  0.5474E+01  0.5450E+01  0.7562E+05  0.7555E+05  0.7806E+03  0.7289E+03  0.0000E+00  0.0000E+00  0.0000E+00  0.0000E+00  0.0000E+00  0.0000E+00  0.0000E+00  0.0000E+00  0.0000E+00  0.0000E+00  0.0000E+00  0.0000E+00  0.0000E+00  0.0000E+00  0.0000E+00  0.0000E+00  0.0000E+00  0.9649E+03  0.2001E+03  0.0000E+00  0.0000E+00
REACH    1        0  2016  0.2442E+00  0.1661E-01  0.1660E-01  0.8181E-05  0.0000E+00  0.2439E+03  0.2439E+03  0.1025E+03  0.3616E+03  0.3613E+03  0.7860E+02  0.7852E+02  0.4621E+02  0.4618E+02  0.0000E+00  0.1918E+00  0.0000E+00  0.0000E+00  0.6110E+00  0.6697E+00  0.3066E+01  0.2981E+01  0.3014E+05  0.3001E+05  0.3565E+04  0.1849E+04  0.0000E+00  0.0000E+00  0.0000E+00  0.0000E+00  0.0000E+00  0.0000E+00  0.0000E+00  0.0000E+00  0.0000E+00  0.0000E+00  0.0000E+00  0.0000E+00  0.0000E+00  0.0000E+00  0.0000E+00  0.0000E+00  0.0000E+00  0.4077E+03  0.7919E+02  0.0000E+00  0.0000E+00
REACH    2        0  2016  0.1348E+00  0.9195E-02  0.9195E-02  0.6903E-06  0.0000E+00  0.1258E+03  0.1258E+03  0.9465E+02  0.1952E+03  0.1951E+03  0.4239E+02  0.4239E+02  0.1850E+02  0.1850E+02  0.0000E+00  0.1781E-01  0.0000E+00  0.0000E+00  0.3301E+00  0.3357E+00  0.1594E+01  0.1587E+01  0.1537E+05  0.1536E+05  0.1958E+04  0.1310E+04  0.0000E+00  0.0000E+00  0.0000E+00  0.0000E+00  0.0000E+00  0.0000E+00  0.0000E+00  0.0000E+00  0.0000E+00  0.0000E+00  0.0000E+00  0.0000E+00  0.0000E+00  0.0000E+00  0.0000E+00  0.0000E+00  0.0000E+00  0.2137E+03  0.4272E+02  0.0000E+00  0.0000E+00
REACH    3        0  2016  0.1273E+00  0.8658E-02  0.8656E-02  0.2294E-05  0.0000E+00  0.9197E+02  0.9197E+02  0.7351E+02  0.1662E+03  0.1662E+03  0.3605E+02  0.3603E+02  0.1764E+02  0.1763E+02  0.0000E+00  0.3834E-01  0.0000E+00  0.0000E+00  0.3126E+00  0.3234E+00  0.1303E+01  0.1284E+01  0.1164E+05  0.1162E+05  0.1894E+04  0.1318E+04  0.0000E+00  0.0000E+00  0.0000E+00  0.0000E+00  0.0000E+00  0.0000E+00  0.0000E+00  0.0000E+00  0.0000E+00  0.0000E+00  0.0000E+00  0.0000E+00  0.0000E+00  0.0000E+00  0.0000E+00  0.0000E+00  0.0000E+00  0.1839E+03  0.3636E+02  0.0000E+00  0.0000E+00
REACH    4        0  2016  0.1895E+00  0.1300E-01  0.1300E-01  0.5981E-05  0.0000E+00  0.2237E+03  0.2237E+03  0.1250E+03  0.3129E+03  0.3127E+03  0.6786E+02  0.6780E+02  0.2310E+02  0.2308E+02  0.0000E+00  0.1416E+00  0.0000E+00  0.0000E+00  0.4572E+00  0.5005E+00  0.2974E+01  0.2895E+01  0.2920E+05  0.2909E+05  0.2543E+04  0.1339E+04  0.0000E+00  0.0000E+00  0.0000E+00  0.0000E+00  0.0000E+00  0.0000E+00  0.0000E+00  0.0000E+00  0.0000E+00  0.0000E+00  0.0000E+00  0.0000E+00  0.0000E+00  0.0000E+00  0.0000E+00  0.0000E+00  0.0000E+00  0.3360E+03  0.6830E+02  0.0000E+00  0.0000E+00
REACH    5        0  2016  0.2556E+00  0.1730E-01  0.1730E-01  0.6761E-05  0.0000E+00  0.1995E+03  0.1995E+03  0.8226E+02  0.3651E+03  0.3649E+03  0.7926E+02  0.7921E+02  0.3473E+02  0.3471E+02  0.0000E+00  0.1299E+00  0.0000E+00  0.0000E+00  0.6470E+00  0.6853E+00  0.3374E+01  0.3307E+01  0.2880E+05  0.2873E+05  0.3644E+04  0.1885E+04  0.0000E+00  0.0000E+00  0.0000E+00  0.0000E+00  0.0000E+00  0.0000E+00  0.0000E+00  0.0000E+00  0.0000E+00  0.0000E+00  0.0000E+00  0.0000E+00  0.0000E+00  0.0000E+00  0.0000E+00  0.0000E+00  0.0000E+00  0.3998E+03  0.7989E+02  0.0000E+00  0.0000E+00
REACH    6        0  2016  0.5361E+00  0.3634E-01  0.3633E-01  0.1241E-04  0.0000E+00  0.3887E+03  0.2643E+03  0.1039E+03  0.7160E+03  0.7156E+03  0.1553E+03  0.1551E+03  0.7350E+02  0.7347E+02  0.1682E+00  0.4804E+00  0.0000E+00  0.3264E-03  0.1434E+01  0.1541E+01  0.6013E+01  0.5897E+01  0.5260E+05  0.5238E+05  0.5512E+04  0.4590E+04  0.0000E+00  0.0000E+00  0.0000E+00  0.0000E+00  0.0000E+00  0.0000E+00  0.0000E+00  0.0000E+00  0.0000E+00  0.0000E+00  0.0000E+00  0.0000E+00  0.0000E+00  0.0000E+00  0.0000E+00  0.0000E+00  0.0000E+00  0.7896E+03  0.1567E+03  0.0000E+00  0.0000E+00
REACH    7        0  2016  0.8570E+00  0.5827E-01  0.5826E-01  0.9252E-05  0.0000E+00  0.6353E+03  0.5165E+03  0.1210E+03  0.1257E+04  0.1257E+04  0.2729E+03  0.2728E+03  0.1557E+03  0.1556E+03  0.6220E+00  0.8978E+00  0.3264E-03  0.7649E-03  0.2599E+01  0.2686E+01  0.1155E+02  0.1145E+02  0.1028E+06  0.1027E+06  0.7774E+04  0.6074E+04  0.0000E+00  0.0000E+00  0.0000E+00  0.0000E+00  0.0000E+00  0.0000E+00  0.0000E+00  0.0000E+00  0.0000E+00  0.0000E+00  0.0000E+00  0.0000E+00  0.0000E+00  0.0000E+00  0.0000E+00  0.0000E+00  0.0000E+00  0.1413E+04  0.2755E+03  0.0000E+00  0.0000E+00
REACH    8        0  2016  0.1082E+01  0.7348E-01  0.7346E-01  0.1522E-04  0.0000E+00  0.7065E+03  0.5806E+03  0.1111E+03  0.1556E+04  0.1556E+04  0.3379E+03  0.3377E+03  0.1984E+03  0.1983E+03  0.9156E+00  0.1439E+01  0.7649E-03  0.1485E-02  0.3363E+01  0.3533E+01  0.1450E+02  0.1433E+02  0.1310E+06  0.1306E+06  0.8752E+04  0.6929E+04  0.0000E+00  0.0000E+00  0.0000E+00  0.0000E+00  0.0000E+00  0.0000E+00  0.0000E+00  0.0000E+00  0.0000E+00  0.0000E+00  0.0000E+00  0.0000E+00  0.0000E+00  0.0000E+00  0.0000E+00  0.0000E+00  0.0000E+00  0.1755E+04  0.3413E+03  0.0000E+00  0.0000E+00
REACH    9        0  2016  0.1363E+01  0.9255E-01  0.9255E-01  0.6888E-05  0.0000E+00  0.8361E+03  0.7480E+03  0.1147E+03  0.1948E+04  0.1948E+04  0.4229E+03  0.4228E+03  0.2500E+03  0.2500E+03  0.1631E+01  0.1880E+01  0.1485E-02  0.1911E-02  0.4442E+01  0.4523E+01  0.1757E+02  0.1750E+02  0.1621E+06  0.1620E+06  0.9358E+04  0.8984E+04  0.0000E+00  0.0000E+00  0.0000E+00  0.0000E+00  0.0000E+00  0.0000E+00  0.0000E+00  0.0000E+00  0.0000E+00  0.0000E+00  0.0000E+00  0.0000E+00  0.0000E+00  0.0000E+00  0.0000E+00  0.0000E+00  0.0000E+00  0.2200E+04  0.4274E+03  0.0000E+00  0.0000E+00
REACH    1        0   4.0  0.2442E+00  0.1925E-01  0.1924E-01  0.8354E-05  0.0000E+00  0.7621E+03  0.7621E+03  0.2088E+03  0.9655E+03  0.9647E+03  0.2117E+03  0.2114E+03  0.5629E+02  0.5626E+02  0.0000E+00  0.5199E+00  0.0000E+00  0.0000E+00  0.8291E+00  0.1008E+01  0.1114E+02  0.1084E+02  0.1089E+06  0.1083E+06  0.3806E+04  0.2030E+04  0.0000E+00  0.0000E+00  0.0000E+00  0.0000E+00  0.0000E+00  0.0000E+00  0.0000E+00  0.0000E+00  0.0000E+00  0.0000E+00  0.0000E+00  0.0000E+00  0.0000E+00  0.0000E+00  0.0000E+00  0.0000E+00  0.0000E+00  0.1021E+04  0.2125E+03  0.0000E+00  0.0000E+00
REACH    2        0   4.0  0.1348E+00  0.1066E-01  0.1066E-01  0.7105E-06  0.0000E+00  0.4039E+03  0.4039E+03  0.1977E+03  0.5383E+03  0.5382E+03  0.1181E+03  0.1181E+03  0.2327E+02  0.2327E+02  0.0000E+00  0.4519E-01  0.0000E+00  0.0000E+00  0.4539E+00  0.4696E+00  0.6369E+01  0.6340E+01  0.5856E+05  0.5851E+05  0.2083E+04  0.1297E+04  0.0000E+00  0.0000E+00  0.0000E+00  0.0000E+00  0.0000E+00  0.0000E+00  0.0000E+00  0.0000E+00  0.0000E+00  0.0000E+00  0.0000E+00  0.0000E+00  0.0000E+00  0.0000E+00  0.0000E+00  0.0000E+00  0.0000E+00  0.5615E+03  0.1185E+03  0.0000E+00  0.0000E+00
REACH    3        0   4.0  0.1273E+00  0.1003E-01  0.1003E-01  0.2291E-05  0.0000E+00  0.2981E+03  0.2981E+03  0.1552E+03  0.4905E+03  0.4904E+03  0.1071E+03  0.1071E+03  0.2215E+02  0.2215E+02  0.0000E+00  0.1073E+00  0.0000E+00  0.0000E+00  0.4201E+00  0.4560E+00  0.5576E+01  0.5498E+01  0.4483E+05  0.4474E+05  0.2006E+04  0.1281E+04  0.0000E+00  0.0000E+00  0.0000E+00  0.0000E+00  0.0000E+00  0.0000E+00  0.0000E+00  0.0000E+00  0.0000E+00  0.0000E+00  0.0000E+00  0.0000E+00  0.0000E+00  0.0000E+00  0.0000E+00  0.0000E+00  0.0000E+00  0.5126E+03  0.1075E+03  0.0000E+00  0.0000E+00
REACH    4        0   4.0  0.1895E+00  0.1507E-01  0.1506E-01  0.5979E-05  0.0000E+00  0.6582E+03  0.6582E+03  0.2346E+03  0.8421E+03  0.8416E+03  0.1882E+03  0.1880E+03  0.2940E+02  0.2938E+02  0.0000E+00  0.3564E+00  0.0000E+00  0.0000E+00  0.8031E+00  0.9272E+00  0.1185E+02  0.1156E+02  0.9998E+05  0.9958E+05  0.2716E+04  0.1433E+04  0.0000E+00  0.0000E+00  0.0000E+00  0.0000E+00  0.0000E+00  0.0000E+00  0.0000E+00  0.0000E+00  0.0000E+00  0.0000E+00  0.0000E+00  0.0000E+00  0.0000E+00  0.0000E+00  0.0000E+00  0.0000E+00  0.0000E+00  0.8713E+03  0.1889E+03  0.0000E+00  0.0000E+00
REACH    5        0   4.0  0.2556E+00  0.2008E-01  0.2007E-01  0.6595E-05  0.0000E+00  0.5826E+03  0.5826E+03  0.1550E+03  0.1049E+04  0.1048E+04  0.2300E+03  0.2298E+03  0.4423E+02  0.4421E+02  0.0000E+00  0.3184E+00  0.0000E+00  0.0000E+00  0.9213E+00  0.1029E+01  0.1355E+02  0.1332E+02  0.9639E+05  0.9613E+05  0.3810E+04  0.1956E+04  0.0000E+00  0.0000E+00  0.0000E+00  0.0000E+00  0.0000E+00  0.0000E+00  0.0000E+00  0.0000E+00  0.0000E+00  0.0000E+00  0.0000E+00  0.0000E+00  0.0000E+00  0.0000E+00  0.0000E+00  0.0000E+00  0.0000E+00  0.1093E+04  0.2308E+03  0.0000E+00  0.0000E+00
REACH    6        0   4.0  0.5361E+00  0.4212E-01  0.4210E-01  0.1246E-04  0.0000E+00  0.1197E+04  0.3102E+03  0.1126E+03  0.2099E+04  0.2097E+04  0.4589E+03  0.4584E+03  0.9310E+02  0.9307E+02  0.4257E+00  0.1232E+01  0.0000E+00  0.4028E-03  0.2060E+01  0.2395E+01  0.2502E+02  0.2458E+02  0.1883E+06  0.1875E+06  0.5684E+04  0.4615E+04  0.0000E+00  0.0000E+00  0.0000E+00  0.0000E+00  0.0000E+00  0.0000E+00  0.0000E+00  0.0000E+00  0.0000E+00  0.0000E+00  0.0000E+00  0.0000E+00  0.0000E+00  0.0000E+00  0.0000E+00  0.0000E+00  0.0000E+00  0.2192E+04  0.4608E+03  0.0000E+00  0.0000E+00
REACH    7        0   4.0  0.8570E+00  0.6753E-01  0.6752E-01  0.9035E-05  0.0000E+00  0.1361E+04  0.6217E+03  0.1329E+03  0.3485E+04  0.3484E+04  0.7678E+03  0.7675E+03  0.1898E+03  0.1898E+03  0.1588E+01  0.2284E+01  0.4028E-03  0.8097E-03  0.4247E+01  0.4490E+01  0.4376E+02  0.4345E+02  0.3479E+06  0.3472E+06  0.8020E+04  0.6573E+04  0.0000E+00  0.0000E+00  0.0000E+00  0.0000E+00  0.0000E+00  0.0000E+00  0.0000E+00  0.0000E+00  0.0000E+00  0.0000E+00  0.0000E+00  0.0000E+00  0.0000E+00  0.0000E+00  0.0000E+00  0.0000E+00  0.0000E+00  0.3676E+04  0.7720E+03  0.0000E+00  0.0000E+00
REACH    8        0   4.0  0.1082E+01  0.8514E-01  0.8512E-01  0.1523E-04  0.0000E+00  0.1153E+04  0.6792E+03  0.1207E+03  0.4311E+04  0.4309E+04  0.9483E+03  0.9477E+03  0.2417E+03  0.2416E+03  0.2330E+01  0.3761E+01  0.8097E-03  0.1831E-02  0.5444E+01  0.5948E+01  0.5312E+02  0.5255E+02  0.4293E+06  0.4280E+06  0.9328E+04  0.7555E+04  0.0000E+00  0.0000E+00  0.0000E+00  0.0000E+00  0.0000E+00  0.0000E+00  0.0000E+00  0.0000E+00  0.0000E+00  0.0000E+00  0.0000E+00  0.0000E+00  0.0000E+00  0.0000E+00  0.0000E+00  0.0000E+00  0.0000E+00  0.4555E+04  0.9536E+03  0.0000E+00  0.0000E+00
REACH    9        0   4.0  0.1363E+01  0.1072E+00  0.1072E+00  0.6747E-05  0.0000E+00  0.1479E+04  0.8967E+03  0.1255E+03  0.5378E+04  0.5377E+04  0.1182E+04  0.1181E+04  0.3046E+03  0.3046E+03  0.4281E+01  0.4920E+01  0.1831E-02  0.2203E-02  0.7261E+01  0.7486E+01  0.6457E+02  0.6434E+02  0.5424E+06  0.5418E+06  0.1020E+05  0.9778E+04  0.0000E+00  0.0000E+00  0.0000E+00  0.0000E+00  0.0000E+00  0.0000E+00  0.0000E+00  0.0000E+00  0.0000E+00  0.0000E+00  0.0000E+00  0.0000E+00  0.0000E+00  0.0000E+00  0.0000E+00  0.0000E+00  0.0000E+00  0.5687E+04  0.1189E+04  0.0000E+00  0.0000E+00
