1
    SWAT Dec 23 2016    VER 2016/Rev 664                                                                 0/ 0/   0      0: 0: 0

    General Input/Output section (file.cio):                                        
    2/12/2020 14:37:03 QSWAT Workflow v1.5.2                                        
                                                                                    


       SUB      GIS  MON   AREAkm2  PRECIPmm SNOMELTmm     PETmm      ETmm      SWmm    PERCmm    SURQmm    GW_Qmm    WYLDmm  SYLDt/ha ORGNkg/ha ORGPkg/haNSURQkg/ha SOLPkg/ha SEDPkg/ha LAT Q(mm)LATNO3kg/hGWNO3kg/haCHOLAmic/LCBODU mg/L DOXQ mg/L TNO3kg/ha   QTILEmm TVAPkg/ha
BIGSUB   1        0    1.74695E-01 0.269E+02 0.000E+00 0.233E+01 0.229E+01 0.954E+02 0.151E+00 0.430E+01 0.869E-01 0.148E+02 0.314E+00 0.654E+00 0.799E-01 0.576E-03 0.447E-03 0.640E-01 0.104E+02 0.110E-01 0.205E-04 .20885E-02 0.245E+02 0.922E+00 0.000E+00 0.000E+00 0.000E+00
BIGSUB   2        0    1.72232E-01 0.269E+02 0.000E+00 0.233E+01 0.230E+01 0.956E+02 0.922E-01 0.408E+01 0.815E-01 0.147E+02 0.444E+00 0.790E+00 0.965E-01 0.449E-03 0.335E-03 0.776E-01 0.106E+02 0.103E-01 0.181E-04 .25161E-02 0.322E+02 0.912E+00 0.000E+00 0.000E+00 0.000E+00
BIGSUB   3        0    1.12200E+00 0.269E+02 0.000E+00 0.233E+01 0.230E+01 0.103E+03 0.727E-01 0.361E+01 0.112E+00 0.145E+02 0.586E+00 0.865E+00 0.106E+00 0.371E-03 0.255E-03 0.853E-01 0.107E+02 0.108E-01 0.255E-04 .27275E-02 0.387E+02 0.915E+00 0.000E+00 0.000E+00 0.000E+00
BIGSUB   4        0    1.11502E+00 0.269E+02 0.000E+00 0.233E+01 0.231E+01 0.953E+02 0.469E-01 0.395E+01 0.668E-01 0.147E+02 0.605E+00 0.927E+00 0.113E+00 0.370E-03 0.262E-03 0.913E-01 0.106E+02 0.982E-02 0.166E-04 .29499E-02 0.409E+02 0.899E+00 0.000E+00 0.000E+00 0.000E+00
BIGSUB   5        0    1.20828E-01 0.269E+02 0.000E+00 0.233E+01 0.216E+01 0.151E+03 0.774E+00 0.243E+01 0.668E+00 0.136E+02 0.361E-01 0.102E+00 0.125E-01 0.154E-02 0.691E-03 0.982E-02 0.105E+02 0.336E-01 0.138E-03 .23652E-03 0.261E+01 0.107E+01 0.000E+00 0.000E+00 0.000E+00
BIGSUB   6        0    1.35910E-02 0.269E+02 0.000E+00 0.233E+01 0.220E+01 0.160E+03 0.118E+01 0.334E+01 0.951E+00 0.138E+02 0.595E-02 0.395E-01 0.483E-02 0.124E-02 0.111E-02 0.369E-02 0.946E+01 0.172E-01 0.199E-03 .17207E-04 0.998E-01 0.113E+01 0.000E+00 0.000E+00 0.000E+00
BIGSUB   7        0    1.76644E-01 0.269E+02 0.000E+00 0.233E+01 0.228E+01 0.110E+03 0.246E+00 0.415E+01 0.291E+00 0.145E+02 0.258E+00 0.537E+00 0.656E-01 0.135E-02 0.534E-03 0.525E-01 0.101E+02 0.148E-01 0.654E-04 .18812E-02 0.201E+02 0.947E+00 0.000E+00 0.000E+00 0.000E+00
BIGSUB   1        0    2.74695E-01 0.100E+01 0.000E+00 0.390E+01 0.305E+01 0.934E+02 0.000E+00 0.100E-05 0.864E-01 0.367E+01 0.107E-08 0.100E-08 0.100E-08 0.100E-08 0.100E-08 0.200E-08 0.358E+01 0.379E-02 0.200E-04 .60905E-23 0.000E+00 0.305E+00 0.000E+00 0.000E+00 0.000E+00
BIGSUB   2        0    2.72232E-01 0.100E+01 0.000E+00 0.390E+01 0.305E+01 0.936E+02 0.000E+00 0.100E-05 0.809E-01 0.371E+01 0.111E-08 0.100E-08 0.100E-08 0.100E-08 0.100E-08 0.200E-08 0.363E+01 0.355E-02 0.176E-04 .58966E-23 0.000E+00 0.308E+00 0.000E+00 0.000E+00 0.000E+00
BIGSUB   3        0    2.12200E+00 0.100E+01 0.000E+00 0.390E+01 0.306E+01 0.101E+03 0.837E-03 0.351E-03 0.112E+00 0.380E+01 0.439E-09 0.999E-09 0.999E-09 0.206E-07 0.102E-06 0.200E-08 0.368E+01 0.371E-02 0.248E-04 .58611E-12 0.000E+00 0.316E+00 0.000E+00 0.000E+00 0.000E+00
BIGSUB   4        0    2.11502E+00 0.100E+01 0.000E+00 0.390E+01 0.306E+01 0.933E+02 0.000E+00 0.100E-05 0.663E-01 0.372E+01 0.261E-09 0.105E-08 0.101E-08 0.100E-08 0.100E-08 0.200E-08 0.365E+01 0.337E-02 0.161E-04 .60346E-23 0.000E+00 0.309E+00 0.000E+00 0.000E+00 0.000E+00
BIGSUB   5        0    2.20828E-01 0.100E+01 0.000E+00 0.390E+01 0.307E+01 0.149E+03 0.000E+00 0.100E-05 0.666E+00 0.432E+01 0.384E-08 0.100E-08 0.100E-08 0.100E-08 0.100E-08 0.200E-08 0.363E+01 0.116E-01 0.134E-03 .45426E-23 0.000E+00 0.359E+00 0.000E+00 0.000E+00 0.000E+00
BIGSUB   6        0    2.35910E-02 0.100E+01 0.000E+00 0.390E+01 0.311E+01 0.158E+03 0.000E+00 0.100E-05 0.945E+00 0.424E+01 0.139E-07 0.100E-08 0.100E-08 0.100E-08 0.100E-08 0.200E-08 0.325E+01 0.589E-02 0.193E-03 .50802E-23 0.000E+00 0.352E+00 0.000E+00 0.000E+00 0.000E+00
BIGSUB   7        0    2.76644E-01 0.100E+01 0.000E+00 0.390E+01 0.309E+01 0.108E+03 0.843E-03 0.463E-04 0.289E+00 0.376E+01 0.157E-08 0.100E-08 0.100E-08 0.111E-07 0.932E-08 0.200E-08 0.346E+01 0.512E-02 0.635E-04 .13904E-09 0.000E+00 0.312E+00 0.000E+00 0.000E+00 0.000E+00
BIGSUB   1        0    3.74695E-01 0.155E+02 0.000E+00 0.471E+01 0.390E+01 0.946E+02 0.179E+00 0.725E+00 0.860E-01 0.825E+01 0.460E-01 0.957E-01 0.117E-01 0.247E-03 0.871E-04 0.937E-02 0.743E+01 0.108E-01 0.197E-04 .23532E-04 0.998E+00 0.632E+00 0.000E+00 0.000E+00 0.000E+00
BIGSUB   2        0    3.72232E-01 0.155E+02 0.000E+00 0.471E+01 0.391E+01 0.948E+02 0.166E+00 0.640E+00 0.806E-01 0.825E+01 0.652E-01 0.115E+00 0.141E-01 0.164E-03 0.564E-04 0.113E-01 0.753E+01 0.105E-01 0.173E-04 .28072E-04 0.132E+01 0.630E+00 0.000E+00 0.000E+00 0.000E+00
BIGSUB   3        0    3.12200E+00 0.155E+02 0.000E+00 0.471E+01 0.392E+01 0.102E+03 0.108E+00 0.535E+00 0.111E+00 0.822E+01 0.857E-01 0.125E+00 0.152E-01 0.106E-03 0.351E-04 0.123E-01 0.757E+01 0.105E-01 0.242E-04 .30183E-04 0.158E+01 0.632E+00 0.000E+00 0.000E+00 0.000E+00
BIGSUB   4        0    3.11502E+00 0.155E+02 0.000E+00 0.471E+01 0.392E+01 0.945E+02 0.125E+00 0.598E+00 0.659E-01 0.824E+01 0.888E-01 0.135E+00 0.165E-01 0.117E-03 0.385E-04 0.133E-01 0.758E+01 0.103E-01 0.158E-04 .32655E-04 0.167E+01 0.629E+00 0.000E+00 0.000E+00 0.000E+00
BIGSUB   5        0    3.20828E-01 0.155E+02 0.000E+00 0.472E+01 0.380E+01 0.150E+03 0.135E+01 0.385E+00 0.664E+00 0.831E+01 0.454E-02 0.102E-01 0.125E-02 0.446E-03 0.115E-03 0.100E-02 0.724E+01 0.239E-01 0.131E-03 .33178E-05 0.102E+00 0.678E+00 0.000E+00 0.000E+00 0.000E+00
BIGSUB   6        0    3.35910E-02 0.155E+02 0.000E+00 0.472E+01 0.384E+01 0.158E+03 0.205E+01 0.808E+00 0.941E+00 0.835E+01 0.139E-07 0.100E-08 0.100E-08 0.786E-03 0.285E-03 0.200E-08 0.656E+01 0.141E-01 0.190E-03 .24619E-05 0.000E+00 0.686E+00 0.000E+00 0.000E+00 0.000E+00
BIGSUB   7        0    3.76644E-01 0.155E+02 0.000E+00 0.472E+01 0.392E+01 0.109E+03 0.591E+00 0.893E+00 0.287E+00 0.833E+01 0.382E-01 0.794E-01 0.970E-02 0.949E-03 0.134E-03 0.777E-02 0.713E+01 0.134E-01 0.622E-04 .61818E-04 0.905E+00 0.644E+00 0.000E+00 0.000E+00 0.000E+00
BIGSUB   1        0    4.74695E-01 0.640E+01 0.000E+00 0.574E+01 0.451E+01 0.937E+02 0.211E-01 0.419E-03 0.855E-01 0.449E+01 0.107E-08 0.100E-08 0.100E-08 0.596E-06 0.121E-06 0.200E-08 0.440E+01 0.456E-02 0.193E-04 .67466E-13 0.000E+00 0.368E+00 0.000E+00 0.000E+00 0.000E+00
BIGSUB   2        0    4.72232E-01 0.640E+01 0.000E+00 0.574E+01 0.452E+01 0.938E+02 0.144E-01 0.161E-03 0.801E-01 0.453E+01 0.111E-08 0.100E-08 0.100E-08 0.246E-06 0.511E-07 0.200E-08 0.444E+01 0.433E-02 0.169E-04 .41750E-13 0.000E+00 0.370E+00 0.000E+00 0.000E+00 0.000E+00
BIGSUB   3        0    4.12200E+00 0.640E+01 0.000E+00 0.574E+01 0.453E+01 0.101E+03 0.974E-02 0.119E-03 0.110E+00 0.456E+01 0.439E-09 0.999E-09 0.999E-09 0.757E-08 0.349E-07 0.200E-08 0.444E+01 0.435E-02 0.235E-04 .29572E-13 0.000E+00 0.373E+00 0.000E+00 0.000E+00 0.000E+00
BIGSUB   4        0    4.11502E+00 0.640E+01 0.000E+00 0.574E+01 0.454E+01 0.935E+02 0.618E-02 0.100E-05 0.654E-01 0.453E+01 0.261E-09 0.100E-08 0.100E-08 0.100E-08 0.100E-08 0.200E-08 0.446E+01 0.416E-02 0.154E-04 .39058E-23 0.000E+00 0.371E+00 0.000E+00 0.000E+00 0.000E+00
BIGSUB   5        0    4.20828E-01 0.640E+01 0.000E+00 0.573E+01 0.439E+01 0.149E+03 0.119E+00 0.930E-03 0.661E+00 0.485E+01 0.384E-08 0.100E-08 0.100E-08 0.140E-05 0.325E-06 0.200E-08 0.416E+01 0.118E-01 0.129E-03 .31607E-12 0.000E+00 0.397E+00 0.000E+00 0.000E+00 0.000E+00
BIGSUB   6        0    4.35910E-02 0.640E+01 0.000E+00 0.573E+01 0.445E+01 0.157E+03 0.217E+00 0.321E-02 0.937E+00 0.477E+01 0.139E-07 0.100E-08 0.100E-08 0.523E-05 0.114E-05 0.200E-08 0.379E+01 0.696E-02 0.186E-03 .11909E-11 0.000E+00 0.390E+00 0.000E+00 0.000E+00 0.000E+00
BIGSUB   7        0    4.76644E-01 0.640E+01 0.000E+00 0.573E+01 0.454E+01 0.108E+03 0.466E-01 0.788E-01 0.285E+00 0.455E+01 0.157E-08 0.100E-08 0.100E-08 0.337E-03 0.151E-04 0.200E-08 0.417E+01 0.604E-02 0.609E-04 .13453E-04 0.000E+00 0.372E+00 0.000E+00 0.000E+00 0.000E+00
BIGSUB   1        0    5.74695E-01 0.257E+02 0.000E+00 0.574E+01 0.453E+01 0.950E+02 0.395E+00 0.416E+01 0.856E-01 0.158E+02 0.561E+00 0.996E+00 0.122E+00 0.499E-03 0.423E-03 0.976E-01 0.116E+02 0.194E-01 0.193E-04 .26048E-02 0.341E+02 0.993E+00 0.000E+00 0.000E+00 0.000E+00
BIGSUB   2        0    5.72232E-01 0.257E+02 0.000E+00 0.574E+01 0.455E+01 0.952E+02 0.325E+00 0.394E+01 0.800E-01 0.158E+02 0.795E+00 0.120E+01 0.147E+00 0.398E-03 0.315E-03 0.118E+00 0.117E+02 0.192E-01 0.169E-04 .31308E-02 0.449E+02 0.990E+00 0.000E+00 0.000E+00 0.000E+00
BIGSUB   3        0    5.12200E+00 0.257E+02 0.000E+00 0.574E+01 0.455E+01 0.102E+03 0.455E+00 0.350E+01 0.110E+00 0.156E+02 0.105E+01 0.131E+01 0.160E+00 0.331E-03 0.239E-03 0.129E+00 0.120E+02 0.207E-01 0.233E-04 .33826E-02 0.539E+02 0.100E+01 0.000E+00 0.000E+00 0.000E+00
BIGSUB   4        0    5.11502E+00 0.257E+02 0.000E+00 0.574E+01 0.456E+01 0.949E+02 0.256E+00 0.383E+01 0.652E-01 0.157E+02 0.108E+01 0.140E+01 0.172E+00 0.338E-03 0.246E-03 0.138E+00 0.118E+02 0.190E-01 0.153E-04 .36606E-02 0.569E+02 0.983E+00 0.000E+00 0.000E+00 0.000E+00
BIGSUB   5        0    5.20828E-01 0.257E+02 0.000E+00 0.573E+01 0.440E+01 0.149E+03 0.285E+01 0.228E+01 0.662E+00 0.148E+02 0.643E-01 0.158E+00 0.194E-01 0.119E-02 0.644E-03 0.153E-01 0.118E+02 0.385E-01 0.128E-03 .29847E-03 0.366E+01 0.113E+01 0.000E+00 0.000E+00 0.000E+00
BIGSUB   6        0    5.35910E-02 0.257E+02 0.000E+00 0.573E+01 0.445E+01 0.157E+03 0.386E+01 0.312E+01 0.937E+00 0.148E+02 0.101E-01 0.651E-01 0.795E-02 0.947E-03 0.102E-02 0.608E-02 0.107E+02 0.233E-01 0.185E-03 .13326E-04 0.138E+00 0.119E+01 0.000E+00 0.000E+00 0.000E+00
BIGSUB   7        0    5.76644E-01 0.257E+02 0.000E+00 0.573E+01 0.456E+01 0.109E+03 0.115E+01 0.401E+01 0.285E+00 0.156E+02 0.462E+00 0.820E+00 0.100E+00 0.128E-02 0.508E-03 0.802E-01 0.113E+02 0.231E-01 0.608E-04 .23659E-02 0.280E+02 0.102E+01 0.000E+00 0.000E+00 0.000E+00
BIGSUB   1        0    6.74695E-01 0.130E+01 0.000E+00 0.577E+01 0.357E+01 0.926E+02 0.000E+00 0.100E-05 0.856E-01 0.415E+01 0.107E-08 0.100E-08 0.100E-08 0.100E-08 0.100E-08 0.200E-08 0.406E+01 0.671E-02 0.192E-04 .47421E-23 0.000E+00 0.339E+00 0.000E+00 0.000E+00 0.000E+00
BIGSUB   2        0    6.72232E-01 0.130E+01 0.000E+00 0.577E+01 0.358E+01 0.928E+02 0.000E+00 0.100E-05 0.799E-01 0.420E+01 0.111E-08 0.100E-08 0.100E-08 0.100E-08 0.100E-08 0.200E-08 0.411E+01 0.660E-02 0.167E-04 .45962E-23 0.000E+00 0.343E+00 0.000E+00 0.000E+00 0.000E+00
BIGSUB   3        0    6.12200E+00 0.130E+01 0.000E+00 0.577E+01 0.361E+01 0.999E+02 0.808E-04 0.302E-03 0.109E+00 0.432E+01 0.439E-09 0.999E-09 0.999E-09 0.132E-07 0.862E-07 0.200E-08 0.421E+01 0.713E-02 0.231E-04 .28935E-12 0.000E+00 0.353E+00 0.000E+00 0.000E+00 0.000E+00
BIGSUB   4        0    6.11502E+00 0.130E+01 0.000E+00 0.578E+01 0.359E+01 0.925E+02 0.000E+00 0.100E-05 0.650E-01 0.422E+01 0.261E-09 0.111E-08 0.101E-08 0.100E-08 0.100E-08 0.201E-08 0.415E+01 0.655E-02 0.152E-04 .47038E-23 0.000E+00 0.345E+00 0.000E+00 0.000E+00 0.000E+00
BIGSUB   5        0    6.20828E-01 0.130E+01 0.000E+00 0.576E+01 0.368E+01 0.147E+03 0.000E+00 0.100E-05 0.662E+00 0.485E+01 0.384E-08 0.100E-08 0.100E-08 0.100E-08 0.100E-08 0.200E-08 0.416E+01 0.134E-01 0.127E-03 .35983E-23 0.000E+00 0.396E+00 0.000E+00 0.000E+00 0.000E+00
BIGSUB   6        0    6.35910E-02 0.130E+01 0.000E+00 0.576E+01 0.373E+01 0.155E+03 0.000E+00 0.100E-05 0.935E+00 0.469E+01 0.139E-07 0.100E-08 0.100E-08 0.100E-08 0.100E-08 0.200E-08 0.372E+01 0.804E-02 0.184E-03 .41441E-23 0.000E+00 0.383E+00 0.000E+00 0.000E+00 0.000E+00
BIGSUB   7        0    6.76644E-01 0.130E+01 0.000E+00 0.576E+01 0.368E+01 0.107E+03 0.812E-03 0.104E-03 0.284E+00 0.425E+01 0.157E-08 0.100E-08 0.100E-08 0.137E-05 0.212E-07 0.200E-08 0.395E+01 0.800E-02 0.603E-04 .26211E-07 0.000E+00 0.347E+00 0.000E+00 0.000E+00 0.000E+00
BIGSUB   1        0    7.74695E-01 0.000E+00 0.000E+00 0.575E+01 0.225E+01 0.903E+02 0.000E+00 0.100E-05 0.857E-01 0.149E+01 0.107E-08 0.100E-08 0.100E-08 0.100E-08 0.100E-08 0.200E-08 0.140E+01 0.232E-02 0.190E-04 .39054E-22 0.000E+00 0.123E+00 0.000E+00 0.000E+00 0.000E+00
BIGSUB   2        0    7.72232E-01 0.000E+00 0.000E+00 0.575E+01 0.225E+01 0.905E+02 0.000E+00 0.100E-05 0.796E-01 0.150E+01 0.111E-08 0.100E-08 0.100E-08 0.100E-08 0.100E-08 0.200E-08 0.141E+01 0.227E-02 0.165E-04 .37709E-22 0.000E+00 0.124E+00 0.000E+00 0.000E+00 0.000E+00
BIGSUB   3        0    7.12200E+00 0.000E+00 0.000E+00 0.575E+01 0.228E+01 0.976E+02 0.000E+00 0.172E-03 0.109E+00 0.156E+01 0.439E-09 0.999E-09 0.999E-09 0.794E-08 0.494E-07 0.200E-08 0.145E+01 0.245E-02 0.227E-04 .65048E-13 0.000E+00 0.129E+00 0.000E+00 0.000E+00 0.000E+00
BIGSUB   4        0    7.11502E+00 0.000E+00 0.000E+00 0.576E+01 0.226E+01 0.902E+02 0.000E+00 0.100E-05 0.646E-01 0.150E+01 0.261E-09 0.100E-08 0.100E-08 0.100E-08 0.100E-08 0.200E-08 0.143E+01 0.225E-02 0.150E-04 .37699E-22 0.000E+00 0.124E+00 0.000E+00 0.000E+00 0.000E+00
BIGSUB   5        0    7.20828E-01 0.000E+00 0.000E+00 0.575E+01 0.240E+01 0.144E+03 0.000E+00 0.100E-05 0.661E+00 0.214E+01 0.384E-08 0.100E-08 0.100E-08 0.100E-08 0.100E-08 0.200E-08 0.145E+01 0.465E-02 0.126E-03 .21110E-22 0.000E+00 0.177E+00 0.000E+00 0.000E+00 0.000E+00
BIGSUB   6        0    7.35910E-02 0.000E+00 0.000E+00 0.575E+01 0.245E+01 0.152E+03 0.000E+00 0.100E-05 0.932E+00 0.225E+01 0.139E-07 0.100E-08 0.100E-08 0.100E-08 0.100E-08 0.200E-08 0.128E+01 0.276E-02 0.182E-03 .18605E-22 0.000E+00 0.186E+00 0.000E+00 0.000E+00 0.000E+00
BIGSUB   7        0    7.76644E-01 0.000E+00 0.000E+00 0.575E+01 0.234E+01 0.104E+03 0.537E-03 0.100E-05 0.283E+00 0.166E+01 0.157E-08 0.100E-08 0.100E-08 0.100E-08 0.100E-08 0.200E-08 0.136E+01 0.276E-02 0.596E-04 .64250E-18 0.000E+00 0.137E+00 0.000E+00 0.000E+00 0.000E+00
BIGSUB   1        0    8.74695E-01 0.000E+00 0.000E+00 0.597E+01 0.186E+01 0.885E+02 0.000E+00 0.100E-05 0.857E-01 0.575E+00 0.107E-08 0.100E-08 0.100E-08 0.100E-08 0.100E-08 0.200E-08 0.483E+00 0.801E-03 0.187E-04 .32172E-21 0.000E+00 0.475E-01 0.000E+00 0.000E+00 0.000E+00
BIGSUB   2        0    8.72232E-01 0.000E+00 0.000E+00 0.597E+01 0.186E+01 0.886E+02 0.000E+00 0.100E-05 0.792E-01 0.570E+00 0.111E-08 0.100E-08 0.100E-08 0.100E-08 0.100E-08 0.200E-08 0.485E+00 0.779E-03 0.162E-04 .30950E-21 0.000E+00 0.471E-01 0.000E+00 0.000E+00 0.000E+00
BIGSUB   3        0    8.12200E+00 0.000E+00 0.000E+00 0.597E+01 0.189E+01 0.957E+02 0.000E+00 0.103E-03 0.108E+00 0.611E+00 0.439E-09 0.999E-09 0.999E-09 0.517E-08 0.300E-07 0.200E-08 0.497E+00 0.842E-03 0.222E-04 .14564E-13 0.000E+00 0.505E-01 0.000E+00 0.000E+00 0.000E+00
BIGSUB   4        0    8.11502E+00 0.000E+00 0.000E+00 0.597E+01 0.186E+01 0.884E+02 0.000E+00 0.100E-05 0.642E-01 0.559E+00 0.261E-09 0.100E-08 0.100E-08 0.100E-08 0.100E-08 0.200E-08 0.490E+00 0.774E-03 0.147E-04 .31307E-21 0.000E+00 0.462E-01 0.000E+00 0.000E+00 0.000E+00
BIGSUB   5        0    8.20828E-01 0.000E+00 0.000E+00 0.597E+01 0.202E+01 0.142E+03 0.000E+00 0.100E-05 0.659E+00 0.119E+01 0.384E-08 0.100E-08 0.100E-08 0.100E-08 0.100E-08 0.200E-08 0.505E+00 0.162E-02 0.124E-03 .11317E-21 0.000E+00 0.986E-01 0.000E+00 0.000E+00 0.000E+00
BIGSUB   6        0    8.35910E-02 0.000E+00 0.000E+00 0.597E+01 0.207E+01 0.150E+03 0.000E+00 0.100E-05 0.928E+00 0.141E+01 0.139E-07 0.100E-08 0.100E-08 0.100E-08 0.100E-08 0.200E-08 0.439E+00 0.949E-03 0.179E-03 .53383E-22 0.000E+00 0.116E+00 0.000E+00 0.000E+00 0.000E+00
BIGSUB   7        0    8.76644E-01 0.000E+00 0.000E+00 0.597E+01 0.192E+01 0.103E+03 0.312E-03 0.100E-05 0.281E+00 0.763E+00 0.157E-08 0.100E-08 0.100E-08 0.100E-08 0.100E-08 0.200E-08 0.468E+00 0.957E-03 0.587E-04 .64291E-18 0.000E+00 0.630E-01 0.000E+00 0.000E+00 0.000E+00
BIGSUB   1        0    9.74695E-01 0.709E+02 0.000E+00 0.427E+01 0.365E+01 0.967E+02 0.618E+00 0.328E+02 0.863E-01 0.499E+02 0.341E+01 0.648E+01 0.792E+00 0.251E-02 0.309E-02 0.634E+00 0.170E+02 0.236E-01 0.191E-04 .10987E+00 0.569E+03 0.159E+01 0.000E+00 0.000E+00 0.000E+00
BIGSUB   2        0    9.72232E-01 0.709E+02 0.000E+00 0.427E+01 0.366E+01 0.969E+02 0.539E+00 0.322E+02 0.795E-01 0.497E+02 0.483E+01 0.778E+01 0.951E+00 0.207E-02 0.250E-02 0.764E+00 0.174E+02 0.237E-01 0.166E-04 .13186E+00 0.748E+03 0.154E+01 0.000E+00 0.000E+00 0.000E+00
BIGSUB   3        0    9.12200E+00 0.709E+02 0.000E+00 0.427E+01 0.367E+01 0.104E+03 0.796E+00 0.304E+02 0.108E+00 0.489E+02 0.645E+01 0.875E+01 0.107E+01 0.200E-02 0.221E-02 0.861E+00 0.184E+02 0.274E-01 0.226E-04 .14423E+00 0.909E+03 0.158E+01 0.000E+00 0.000E+00 0.000E+00
BIGSUB   4        0    9.11502E+00 0.709E+02 0.000E+00 0.427E+01 0.367E+01 0.967E+02 0.460E+00 0.318E+02 0.644E-01 0.495E+02 0.658E+01 0.909E+01 0.111E+01 0.176E-02 0.208E-02 0.894E+00 0.177E+02 0.238E-01 0.150E-04 .15361E+00 0.950E+03 0.149E+01 0.000E+00 0.000E+00 0.000E+00
BIGSUB   5        0    9.20828E-01 0.709E+02 0.000E+00 0.427E+01 0.355E+01 0.150E+03 0.468E+01 0.251E+02 0.662E+00 0.454E+02 0.559E+00 0.204E+01 0.250E+00 0.101E-01 0.658E-02 0.194E+00 0.196E+02 0.549E-01 0.127E-03 .22574E-01 0.895E+02 0.224E+01 0.000E+00 0.000E+00 0.000E+00
BIGSUB   6        0    9.35910E-02 0.709E+02 0.000E+00 0.427E+01 0.359E+01 0.158E+03 0.606E+01 0.269E+02 0.932E+00 0.454E+02 0.273E+00 0.181E+01 0.221E+00 0.515E-02 0.725E-02 0.169E+00 0.175E+02 0.333E-01 0.182E-03 .14235E-01 0.395E+02 0.268E+01 0.000E+00 0.000E+00 0.000E+00
BIGSUB   7        0    9.76644E-01 0.709E+02 0.000E+00 0.427E+01 0.366E+01 0.111E+03 0.186E+01 0.304E+02 0.282E+00 0.480E+02 0.288E+01 0.571E+01 0.697E+00 0.537E-02 0.353E-02 0.556E+00 0.173E+02 0.298E-01 0.598E-04 .92594E-01 0.469E+03 0.167E+01 0.000E+00 0.000E+00 0.000E+00
BIGSUB   1        0   10.74695E-01 0.498E+02 0.000E+00 0.413E+01 0.358E+01 0.981E+02 0.110E+01 0.191E+02 0.879E-01 0.411E+02 0.107E-08 0.484E+01 0.591E+00 0.159E-02 0.173E-02 0.473E+00 0.219E+02 0.450E-01 0.202E-04 .40677E-01 0.172E-06 0.348E+01 0.000E+00 0.000E+00 0.000E+00
BIGSUB   2        0   10.72232E-01 0.498E+02 0.000E+00 0.413E+01 0.359E+01 0.985E+02 0.958E+00 0.187E+02 0.805E-01 0.412E+02 0.111E-08 0.567E+01 0.693E+00 0.127E-02 0.138E-02 0.557E+00 0.224E+02 0.461E-01 0.174E-04 .47596E-01 0.173E-06 0.348E+01 0.000E+00 0.000E+00 0.000E+00
BIGSUB   3        0   10.12200E+00 0.498E+02 0.000E+00 0.414E+01 0.359E+01 0.105E+03 0.121E+01 0.174E+02 0.110E+00 0.410E+02 0.439E-09 0.610E+01 0.745E+00 0.115E-02 0.119E-02 0.600E+00 0.235E+02 0.501E-01 0.239E-04 .49482E-01 0.456E-07 0.347E+01 0.000E+00 0.000E+00 0.000E+00
BIGSUB   4        0   10.11502E+00 0.498E+02 0.000E+00 0.414E+01 0.360E+01 0.983E+02 0.828E+00 0.184E+02 0.652E-01 0.412E+02 0.261E-09 0.643E+01 0.785E+00 0.106E-02 0.114E-02 0.633E+00 0.227E+02 0.469E-01 0.158E-04 .53771E-01 0.324E-07 0.349E+01 0.000E+00 0.000E+00 0.000E+00
BIGSUB   5        0   10.20828E-01 0.498E+02 0.000E+00 0.412E+01 0.347E+01 0.151E+03 0.550E+01 0.132E+02 0.673E+00 0.385E+02 0.384E-08 0.137E+01 0.167E+00 0.551E-02 0.336E-02 0.130E+00 0.246E+02 0.698E-01 0.134E-03 .63693E-02 0.618E-06 0.326E+01 0.000E+00 0.000E+00 0.000E+00
BIGSUB   6        0   10.35910E-02 0.498E+02 0.000E+00 0.412E+01 0.350E+01 0.158E+03 0.720E+01 0.145E+02 0.944E+00 0.376E+02 0.139E-07 0.113E+01 0.138E+00 0.328E-02 0.393E-02 0.105E+00 0.221E+02 0.439E-01 0.192E-03 .25022E-02 0.801E-06 0.318E+01 0.000E+00 0.000E+00 0.000E+00
BIGSUB   7        0   10.76644E-01 0.498E+02 0.000E+00 0.412E+01 0.358E+01 0.112E+03 0.245E+01 0.180E+02 0.285E+00 0.404E+02 0.157E-08 0.417E+01 0.510E+00 0.354E-02 0.204E-02 0.407E+00 0.221E+02 0.496E-01 0.631E-04 .33921E-01 0.154E-06 0.342E+01 0.000E+00 0.000E+00 0.000E+00
BIGSUB   1        0   11.74695E-01 0.531E+02 0.000E+00 0.217E+01 0.214E+01 0.996E+02 0.166E+01 0.218E+02 0.902E-01 0.466E+02 0.303E+01 0.456E+01 0.557E+00 0.117E-02 0.192E-02 0.447E+00 0.246E+02 0.649E-01 0.218E-04 .39224E-01 0.336E+03 0.216E+01 0.000E+00 0.000E+00 0.000E+00
BIGSUB   2        0   11.72232E-01 0.531E+02 0.000E+00 0.217E+01 0.215E+01 0.999E+02 0.148E+01 0.214E+02 0.822E-01 0.467E+02 0.429E+01 0.525E+01 0.641E+00 0.911E-03 0.154E-02 0.516E+00 0.252E+02 0.681E-01 0.189E-04 .44943E-01 0.442E+03 0.216E+01 0.000E+00 0.000E+00 0.000E+00
BIGSUB   3        0   11.12200E+00 0.531E+02 0.000E+00 0.217E+01 0.215E+01 0.107E+03 0.166E+01 0.200E+02 0.112E+00 0.465E+02 0.573E+01 0.550E+01 0.672E+00 0.804E-03 0.133E-02 0.541E+00 0.264E+02 0.716E-01 0.259E-04 .45264E-01 0.533E+03 0.224E+01 0.000E+00 0.000E+00 0.000E+00
BIGSUB   4        0   11.11502E+00 0.531E+02 0.000E+00 0.217E+01 0.215E+01 0.997E+02 0.133E+01 0.211E+02 0.666E-01 0.468E+02 0.585E+01 0.581E+01 0.710E+00 0.743E-03 0.127E-02 0.572E+00 0.255E+02 0.703E-01 0.171E-04 .49520E-01 0.560E+03 0.214E+01 0.000E+00 0.000E+00 0.000E+00
BIGSUB   5        0   11.20828E-01 0.531E+02 0.000E+00 0.218E+01 0.206E+01 0.152E+03 0.584E+01 0.152E+02 0.689E+00 0.431E+02 0.458E+00 0.137E+01 0.168E+00 0.426E-02 0.377E-02 0.131E+00 0.272E+02 0.715E-01 0.145E-03 .65304E-02 0.461E+02 0.269E+01 0.000E+00 0.000E+00 0.000E+00
BIGSUB   6        0   11.35910E-02 0.531E+02 0.000E+00 0.218E+01 0.208E+01 0.160E+03 0.754E+01 0.165E+02 0.964E+00 0.419E+02 0.194E+00 0.118E+01 0.144E+00 0.252E-02 0.430E-02 0.110E+00 0.244E+02 0.455E-01 0.208E-03 .29092E-02 0.147E+02 0.286E+01 0.000E+00 0.000E+00 0.000E+00
BIGSUB   7        0   11.76644E-01 0.531E+02 0.000E+00 0.218E+01 0.214E+01 0.114E+03 0.292E+01 0.205E+02 0.291E+00 0.455E+02 0.254E+01 0.395E+01 0.483E+00 0.278E-02 0.226E-02 0.386E+00 0.247E+02 0.650E-01 0.685E-04 .32605E-01 0.275E+03 0.228E+01 0.000E+00 0.000E+00 0.000E+00
BIGSUB   1        0   12.74695E-01 0.389E+02 0.000E+00 0.187E+01 0.185E+01 0.999E+02 0.157E+01 0.122E+02 0.931E-01 0.359E+02 0.107E-08 0.194E+01 0.237E+00 0.685E-03 0.105E-02 0.190E+00 0.235E+02 0.669E-01 0.239E-04 .87997E-02 0.942E-07 0.299E+01 0.000E+00 0.000E+00 0.000E+00
BIGSUB   2        0   12.72232E-01 0.389E+02 0.000E+00 0.188E+01 0.186E+01 0.100E+03 0.141E+01 0.119E+02 0.845E-01 0.360E+02 0.111E-08 0.219E+01 0.268E+00 0.500E-03 0.828E-03 0.215E+00 0.240E+02 0.708E-01 0.207E-04 .98639E-02 0.438E-07 0.301E+01 0.000E+00 0.000E+00 0.000E+00
BIGSUB   3        0   12.12200E+00 0.389E+02 0.000E+00 0.187E+01 0.186E+01 0.107E+03 0.153E+01 0.110E+02 0.116E+00 0.361E+02 0.439E-09 0.220E+01 0.269E+00 0.411E-03 0.687E-03 0.217E+00 0.250E+02 0.733E-01 0.284E-04 .95342E-02 0.214E-07 0.301E+01 0.000E+00 0.000E+00 0.000E+00
BIGSUB   4        0   12.11502E+00 0.389E+02 0.000E+00 0.187E+01 0.186E+01 0.100E+03 0.125E+01 0.117E+02 0.684E-01 0.362E+02 0.261E-09 0.237E+01 0.289E+00 0.383E-03 0.675E-03 0.233E+00 0.244E+02 0.733E-01 0.187E-04 .10592E-01 0.244E-07 0.302E+01 0.000E+00 0.000E+00 0.000E+00
BIGSUB   5        0   12.20828E-01 0.389E+02 0.000E+00 0.188E+01 0.177E+01 0.153E+03 0.513E+01 0.768E+01 0.710E+00 0.335E+02 0.384E-08 0.501E+00 0.613E-01 0.247E-02 0.188E-02 0.478E-01 0.251E+02 0.619E-01 0.159E-03 .12027E-02 0.476E-06 0.280E+01 0.000E+00 0.000E+00 0.000E+00
BIGSUB   6        0   12.35910E-02 0.389E+02 0.000E+00 0.188E+01 0.180E+01 0.160E+03 0.662E+01 0.873E+01 0.991E+00 0.322E+02 0.139E-07 0.379E+00 0.463E-01 0.168E-02 0.233E-02 0.354E-01 0.225E+02 0.400E-01 0.229E-03 .26578E-03 0.117E-06 0.269E+01 0.000E+00 0.000E+00 0.000E+00
BIGSUB   7        0   12.76644E-01 0.389E+02 0.000E+00 0.188E+01 0.185E+01 0.114E+03 0.263E+01 0.115E+02 0.299E+00 0.351E+02 0.157E-08 0.164E+01 0.200E+00 0.192E-02 0.124E-02 0.160E+00 0.233E+02 0.644E-01 0.753E-04 .73793E-02 0.121E-06 0.293E+01 0.000E+00 0.000E+00 0.000E+00
BIGSUB   1        0   13.74695E-01 0.150E+02 0.000E+00 0.190E+01 0.188E+01 0.998E+02 0.744E+00 0.852E+00 0.961E-01 0.166E+02 0.287E-01 0.530E-01 0.648E-02 0.125E-03 0.837E-04 0.520E-02 0.157E+02 0.440E-01 0.259E-04 .47408E-05 0.445E+00 0.133E+01 0.000E+00 0.000E+00 0.000E+00
BIGSUB   2        0   13.72232E-01 0.150E+02 0.000E+00 0.190E+01 0.188E+01 0.100E+03 0.653E+00 0.773E+00 0.868E-01 0.168E+02 0.407E-01 0.593E-01 0.724E-02 0.719E-04 0.556E-04 0.583E-02 0.159E+02 0.465E-01 0.225E-04 .52128E-05 0.584E+00 0.134E+01 0.000E+00 0.000E+00 0.000E+00
BIGSUB   3        0   13.12200E+00 0.150E+02 0.000E+00 0.190E+01 0.189E+01 0.107E+03 0.676E+00 0.664E+00 0.119E+00 0.171E+02 0.535E-01 0.565E-01 0.690E-02 0.391E-04 0.377E-04 0.558E-02 0.163E+02 0.476E-01 0.309E-04 .49091E-05 0.697E+00 0.137E+01 0.000E+00 0.000E+00 0.000E+00
BIGSUB   4        0   13.11502E+00 0.150E+02 0.000E+00 0.190E+01 0.189E+01 0.100E+03 0.573E+00 0.736E+00 0.702E-01 0.170E+02 0.554E-01 0.631E-01 0.771E-02 0.434E-04 0.399E-04 0.623E-02 0.161E+02 0.482E-01 0.203E-04 .54973E-05 0.739E+00 0.135E+01 0.000E+00 0.000E+00 0.000E+00
BIGSUB   5        0   13.20828E-01 0.150E+02 0.000E+00 0.190E+01 0.180E+01 0.153E+03 0.220E+01 0.400E+00 0.732E+00 0.168E+02 0.283E-02 0.583E-02 0.713E-03 0.288E-03 0.103E-03 0.571E-03 0.156E+02 0.374E-01 0.173E-03 .69619E-06 0.452E-01 0.139E+01 0.000E+00 0.000E+00 0.000E+00
BIGSUB   6        0   13.35910E-02 0.150E+02 0.000E+00 0.190E+01 0.182E+01 0.160E+03 0.293E+01 0.763E+00 0.102E+01 0.158E+02 0.139E-07 0.100E-08 0.100E-08 0.449E-03 0.238E-03 0.200E-08 0.140E+02 0.243E-01 0.249E-03 .51620E-06 0.000E+00 0.131E+01 0.000E+00 0.000E+00 0.000E+00
BIGSUB   7        0   13.76644E-01 0.150E+02 0.000E+00 0.190E+01 0.187E+01 0.114E+03 0.117E+01 0.103E+01 0.307E+00 0.165E+02 0.236E-01 0.422E-01 0.516E-02 0.777E-03 0.134E-03 0.414E-02 0.152E+02 0.416E-01 0.822E-04 .29850E-04 0.382E+00 0.133E+01 0.000E+00 0.000E+00 0.000E+00
BIGSUB   1        0   14.74695E-01 0.234E+02 0.000E+00 0.210E+01 0.207E+01 0.996E+02 0.111E+01 0.373E+01 0.994E-01 0.202E+02 0.195E+00 0.365E+00 0.446E-01 0.202E-03 0.324E-03 0.358E-01 0.163E+02 0.453E-01 0.281E-04 .47741E-03 0.103E+02 0.141E+01 0.000E+00 0.000E+00 0.000E+00
BIGSUB   2        0   14.72232E-01 0.234E+02 0.000E+00 0.210E+01 0.208E+01 0.100E+03 0.987E+00 0.356E+01 0.894E-01 0.203E+02 0.276E+00 0.407E+00 0.498E-01 0.126E-03 0.240E-03 0.401E-01 0.166E+02 0.480E-01 0.243E-04 .52822E-03 0.135E+02 0.141E+01 0.000E+00 0.000E+00 0.000E+00
BIGSUB   3        0   14.12200E+00 0.234E+02 0.000E+00 0.210E+01 0.208E+01 0.107E+03 0.105E+01 0.315E+01 0.123E+00 0.203E+02 0.364E+00 0.393E+00 0.480E-01 0.856E-04 0.179E-03 0.387E-01 0.170E+02 0.491E-01 0.337E-04 .49989E-03 0.161E+02 0.143E+01 0.000E+00 0.000E+00 0.000E+00
BIGSUB   4        0   14.11502E+00 0.234E+02 0.000E+00 0.210E+01 0.209E+01 0.998E+02 0.873E+00 0.347E+01 0.722E-01 0.204E+02 0.376E+00 0.434E+00 0.531E-01 0.821E-04 0.187E-03 0.428E-01 0.168E+02 0.498E-01 0.220E-04 .56006E-03 0.170E+02 0.141E+01 0.000E+00 0.000E+00 0.000E+00
BIGSUB   5        0   14.20828E-01 0.234E+02 0.000E+00 0.210E+01 0.199E+01 0.152E+03 0.344E+01 0.185E+01 0.755E+00 0.187E+02 0.214E-01 0.531E-01 0.650E-02 0.690E-03 0.465E-03 0.514E-02 0.161E+02 0.367E-01 0.188E-03 .55172E-04 0.107E+01 0.152E+01 0.000E+00 0.000E+00 0.000E+00
BIGSUB   6        0   14.35910E-02 0.234E+02 0.000E+00 0.210E+01 0.201E+01 0.160E+03 0.450E+01 0.251E+01 0.105E+01 0.180E+02 0.245E-02 0.157E-01 0.191E-02 0.612E-03 0.745E-03 0.146E-02 0.144E+02 0.240E-01 0.270E-03 .35205E-05 0.156E-01 0.149E+01 0.000E+00 0.000E+00 0.000E+00
BIGSUB   7        0   14.76644E-01 0.234E+02 0.000E+00 0.210E+01 0.207E+01 0.114E+03 0.181E+01 0.362E+01 0.315E+00 0.197E+02 0.159E+00 0.291E+00 0.356E-01 0.914E-03 0.406E-03 0.285E-01 0.158E+02 0.425E-01 0.896E-04 .44671E-03 0.830E+01 0.142E+01 0.000E+00 0.000E+00 0.000E+00
BIGSUB   1        0   15.74695E-01 0.175E+02 0.000E+00 0.244E+01 0.241E+01 0.993E+02 0.845E+00 0.152E+01 0.103E+00 0.158E+02 0.130E-05 0.236E+00 0.288E-01 0.111E-03 0.138E-03 0.231E-01 0.142E+02 0.380E-01 0.303E-04 .79146E-04 0.109E-03 0.132E+01 0.000E+00 0.000E+00 0.000E+00
BIGSUB   2        0   15.72232E-01 0.175E+02 0.000E+00 0.244E+01 0.242E+01 0.997E+02 0.744E+00 0.141E+01 0.920E-01 0.159E+02 0.111E-08 0.263E+00 0.321E-01 0.628E-04 0.960E-04 0.259E-01 0.144E+02 0.403E-01 0.262E-04 .86802E-04 0.289E-08 0.133E+01 0.000E+00 0.000E+00 0.000E+00
BIGSUB   3        0   15.12200E+00 0.175E+02 0.000E+00 0.244E+01 0.242E+01 0.107E+03 0.777E+00 0.122E+01 0.127E+00 0.160E+02 0.439E-09 0.250E+00 0.306E-01 0.340E-04 0.656E-04 0.247E-01 0.146E+02 0.410E-01 0.364E-04 .81923E-04 0.155E-08 0.133E+01 0.000E+00 0.000E+00 0.000E+00
BIGSUB   4        0   15.11502E+00 0.175E+02 0.000E+00 0.245E+01 0.243E+01 0.994E+02 0.655E+00 0.136E+01 0.743E-01 0.160E+02 0.261E-09 0.280E+00 0.342E-01 0.357E-04 0.711E-04 0.276E-01 0.146E+02 0.418E-01 0.238E-04 .91838E-04 0.560E-08 0.133E+01 0.000E+00 0.000E+00 0.000E+00
BIGSUB   5        0   15.20828E-01 0.175E+02 0.000E+00 0.244E+01 0.231E+01 0.152E+03 0.254E+01 0.684E+00 0.779E+00 0.151E+02 0.384E-08 0.266E-01 0.326E-02 0.312E-03 0.174E-03 0.260E-02 0.136E+02 0.300E-01 0.204E-03 .93174E-05 0.331E-07 0.126E+01 0.000E+00 0.000E+00 0.000E+00
BIGSUB   6        0   15.35910E-02 0.175E+02 0.000E+00 0.244E+01 0.234E+01 0.160E+03 0.337E+01 0.115E+01 0.108E+01 0.144E+02 0.139E-07 0.100E-08 0.100E-08 0.397E-03 0.357E-03 0.200E-08 0.121E+02 0.197E-01 0.292E-03 .95875E-06 0.000E+00 0.120E+01 0.000E+00 0.000E+00 0.000E+00
BIGSUB   7        0   15.76644E-01 0.175E+02 0.000E+00 0.244E+01 0.240E+01 0.114E+03 0.135E+01 0.163E+01 0.324E+00 0.155E+02 0.640E-03 0.189E+00 0.231E-01 0.704E-03 0.198E-03 0.185E-01 0.136E+02 0.355E-01 0.971E-04 .11010E-03 0.522E-01 0.128E+01 0.000E+00 0.000E+00 0.000E+00
BIGSUB   1        0   16.74695E-01 0.840E+01 0.000E+00 0.275E+01 0.271E+01 0.990E+02 0.298E+00 0.152E-01 0.106E+00 0.874E+01 0.107E-08 0.100E-08 0.100E-08 0.827E-05 0.376E-05 0.200E-08 0.861E+01 0.206E-01 0.322E-04 .22392E-09 0.000E+00 0.723E+00 0.000E+00 0.000E+00 0.000E+00
BIGSUB   2        0   16.72232E-01 0.840E+01 0.000E+00 0.275E+01 0.273E+01 0.993E+02 0.256E+00 0.464E-02 0.944E-01 0.881E+01 0.111E-08 0.100E-08 0.100E-08 0.272E-05 0.125E-05 0.200E-08 0.871E+01 0.217E-01 0.279E-04 .80392E-10 0.000E+00 0.730E+00 0.000E+00 0.000E+00 0.000E+00
BIGSUB   3        0   16.12200E+00 0.840E+01 0.000E+00 0.275E+01 0.273E+01 0.106E+03 0.261E+00 0.161E-02 0.131E+00 0.892E+01 0.439E-09 0.102E-08 0.100E-08 0.301E-07 0.428E-06 0.200E-08 0.878E+01 0.221E-01 0.388E-04 .15425E-10 0.000E+00 0.739E+00 0.000E+00 0.000E+00 0.000E+00
BIGSUB   4        0   16.11502E+00 0.840E+01 0.000E+00 0.275E+01 0.273E+01 0.991E+02 0.218E+00 0.100E-05 0.761E-01 0.886E+01 0.261E-09 0.103E-08 0.100E-08 0.100E-08 0.100E-08 0.200E-08 0.878E+01 0.225E-01 0.253E-04 .10347E-23 0.000E+00 0.734E+00 0.000E+00 0.000E+00 0.000E+00
BIGSUB   5        0   16.20828E-01 0.840E+01 0.000E+00 0.276E+01 0.261E+01 0.152E+03 0.952E+00 0.233E-01 0.801E+00 0.891E+01 0.384E-08 0.100E-08 0.100E-08 0.160E-04 0.693E-05 0.200E-08 0.805E+01 0.171E-01 0.217E-03 .49898E-09 0.000E+00 0.738E+00 0.000E+00 0.000E+00 0.000E+00
BIGSUB   6        0   16.35910E-02 0.840E+01 0.000E+00 0.276E+01 0.265E+01 0.159E+03 0.131E+01 0.728E-01 0.111E+01 0.846E+01 0.139E-07 0.100E-08 0.100E-08 0.495E-04 0.224E-04 0.200E-08 0.724E+01 0.113E-01 0.312E-03 .17083E-08 0.000E+00 0.701E+00 0.000E+00 0.000E+00 0.000E+00
BIGSUB   7        0   16.76644E-01 0.840E+01 0.000E+00 0.276E+01 0.271E+01 0.114E+03 0.492E+00 0.179E+00 0.333E+00 0.867E+01 0.157E-08 0.412E-03 0.503E-04 0.399E-03 0.321E-04 0.390E-04 0.815E+01 0.194E-01 0.104E-03 .15851E-04 0.129E-08 0.718E+00 0.000E+00 0.000E+00 0.000E+00
BIGSUB   1        0   17.74695E-01 0.323E+02 0.000E+00 0.294E+01 0.285E+01 0.989E+02 0.128E+01 0.815E+01 0.109E+00 0.244E+02 0.490E+00 0.796E+00 0.973E-01 0.226E-03 0.669E-03 0.781E-01 0.162E+02 0.393E-01 0.344E-04 .34414E-02 0.471E+02 0.143E+01 0.000E+00 0.000E+00 0.000E+00
BIGSUB   2        0   17.72232E-01 0.323E+02 0.000E+00 0.294E+01 0.286E+01 0.992E+02 0.114E+01 0.788E+01 0.971E-01 0.245E+02 0.694E+00 0.888E+00 0.109E+00 0.146E-03 0.509E-03 0.874E-01 0.165E+02 0.417E-01 0.299E-04 .38112E-02 0.619E+02 0.142E+01 0.000E+00 0.000E+00 0.000E+00
BIGSUB   3        0   17.12200E+00 0.323E+02 0.000E+00 0.294E+01 0.286E+01 0.106E+03 0.124E+01 0.715E+01 0.135E+00 0.242E+02 0.919E+00 0.870E+00 0.106E+00 0.116E-03 0.403E-03 0.858E-01 0.169E+02 0.431E-01 0.416E-04 .36065E-02 0.742E+02 0.144E+01 0.000E+00 0.000E+00 0.000E+00
BIGSUB   4        0   17.11502E+00 0.323E+02 0.000E+00 0.294E+01 0.286E+01 0.990E+02 0.101E+01 0.774E+01 0.783E-01 0.245E+02 0.946E+00 0.946E+00 0.116E+00 0.949E-04 0.404E-03 0.933E-01 0.167E+02 0.434E-01 0.271E-04 .40339E-02 0.784E+02 0.141E+01 0.000E+00 0.000E+00 0.000E+00
BIGSUB   5        0   17.20828E-01 0.323E+02 0.000E+00 0.294E+01 0.276E+01 0.152E+03 0.427E+01 0.474E+01 0.826E+00 0.219E+02 0.617E-01 0.168E+00 0.206E-01 0.108E-02 0.115E-02 0.161E-01 0.163E+02 0.338E-01 0.233E-03 .42376E-03 0.528E+01 0.166E+01 0.000E+00 0.000E+00 0.000E+00
BIGSUB   6        0   17.35910E-02 0.323E+02 0.000E+00 0.294E+01 0.278E+01 0.159E+03 0.554E+01 0.566E+01 0.114E+01 0.214E+02 0.161E-01 0.102E+00 0.125E-01 0.690E-03 0.153E-02 0.956E-02 0.146E+02 0.223E-01 0.334E-03 .49009E-04 0.532E+00 0.169E+01 0.000E+00 0.000E+00 0.000E+00
BIGSUB   7        0   17.76644E-01 0.323E+02 0.000E+00 0.294E+01 0.284E+01 0.113E+03 0.217E+01 0.768E+01 0.342E+00 0.238E+02 0.405E+00 0.656E+00 0.802E-01 0.948E-03 0.813E-03 0.642E-01 0.157E+02 0.374E-01 0.112E-03 .28605E-02 0.380E+02 0.147E+01 0.000E+00 0.000E+00 0.000E+00
BIGSUB   1        0   18.74695E-01 0.250E+01 0.000E+00 0.253E+01 0.246E+01 0.982E+02 0.000E+00 0.100E-05 0.112E+00 0.615E+01 0.107E-08 0.100E-08 0.100E-08 0.100E-08 0.100E-08 0.200E-08 0.603E+01 0.136E-01 0.362E-04 .21581E-23 0.000E+00 0.507E+00 0.000E+00 0.000E+00 0.000E+00
BIGSUB   2        0   18.72232E-01 0.250E+01 0.000E+00 0.253E+01 0.247E+01 0.985E+02 0.000E+00 0.100E-05 0.995E-01 0.623E+01 0.111E-08 0.100E-08 0.100E-08 0.100E-08 0.100E-08 0.200E-08 0.613E+01 0.144E-01 0.315E-04 .20807E-23 0.000E+00 0.514E+00 0.000E+00 0.000E+00 0.000E+00
BIGSUB   3        0   18.12200E+00 0.250E+01 0.000E+00 0.253E+01 0.247E+01 0.105E+03 0.678E-03 0.147E-02 0.138E+00 0.642E+01 0.439E-09 0.999E-09 0.999E-09 0.233E-07 0.383E-06 0.200E-08 0.627E+01 0.148E-01 0.440E-04 .83597E-11 0.000E+00 0.530E+00 0.000E+00 0.000E+00 0.000E+00
BIGSUB   4        0   18.11502E+00 0.250E+01 0.000E+00 0.253E+01 0.247E+01 0.983E+02 0.000E+00 0.100E-05 0.802E-01 0.629E+01 0.261E-09 0.108E-08 0.101E-08 0.100E-08 0.100E-08 0.201E-08 0.620E+01 0.149E-01 0.285E-04 .22751E-23 0.000E+00 0.519E+00 0.000E+00 0.000E+00 0.000E+00
BIGSUB   5        0   18.20828E-01 0.250E+01 0.000E+00 0.254E+01 0.240E+01 0.151E+03 0.000E+00 0.100E-05 0.848E+00 0.688E+01 0.384E-08 0.100E-08 0.100E-08 0.100E-08 0.100E-08 0.200E-08 0.599E+01 0.120E-01 0.246E-03 .17840E-23 0.000E+00 0.567E+00 0.000E+00 0.000E+00 0.000E+00
BIGSUB   6        0   18.35910E-02 0.250E+01 0.000E+00 0.254E+01 0.243E+01 0.159E+03 0.000E+00 0.100E-05 0.117E+01 0.651E+01 0.139E-07 0.100E-08 0.100E-08 0.100E-08 0.100E-08 0.200E-08 0.530E+01 0.771E-02 0.353E-03 .21647E-23 0.000E+00 0.538E+00 0.000E+00 0.000E+00 0.000E+00
BIGSUB   7        0   18.76644E-01 0.250E+01 0.000E+00 0.254E+01 0.246E+01 0.113E+03 0.390E-02 0.215E-01 0.350E+00 0.621E+01 0.157E-08 0.100E-08 0.100E-08 0.114E-03 0.389E-05 0.200E-08 0.582E+01 0.129E-01 0.118E-03 .45326E-05 0.000E+00 0.512E+00 0.000E+00 0.000E+00 0.000E+00
BIGSUB   1        0   19.74695E-01 0.107E+02 0.000E+00 0.222E+01 0.219E+01 0.995E+02 0.229E+00 0.108E+00 0.115E+00 0.681E+01 0.496E-02 0.750E-02 0.916E-03 0.287E-04 0.156E-04 0.735E-03 0.658E+01 0.995E-02 0.378E-04 .39862E-07 0.137E-01 0.562E+00 0.000E+00 0.000E+00 0.000E+00
BIGSUB   2        0   19.72232E-01 0.107E+02 0.000E+00 0.222E+01 0.220E+01 0.999E+02 0.186E+00 0.768E-01 0.102E+00 0.682E+01 0.703E-02 0.833E-02 0.102E-02 0.118E-04 0.732E-05 0.820E-03 0.664E+01 0.103E-01 0.328E-04 .36488E-07 0.180E-01 0.563E+00 0.000E+00 0.000E+00 0.000E+00
BIGSUB   3        0   19.12200E+00 0.107E+02 0.000E+00 0.222E+01 0.220E+01 0.107E+03 0.197E+00 0.566E-01 0.141E+00 0.690E+01 0.925E-02 0.786E-02 0.961E-03 0.247E-05 0.290E-05 0.777E-03 0.670E+01 0.107E-01 0.460E-04 .30915E-07 0.216E-01 0.569E+00 0.000E+00 0.000E+00 0.000E+00
BIGSUB   4        0   19.11502E+00 0.107E+02 0.000E+00 0.222E+01 0.220E+01 0.996E+02 0.148E+00 0.629E-01 0.819E-01 0.684E+01 0.958E-02 0.881E-02 0.108E-02 0.288E-05 0.309E-05 0.870E-03 0.669E+01 0.105E-01 0.298E-04 .34663E-07 0.228E-01 0.564E+00 0.000E+00 0.000E+00 0.000E+00
BIGSUB   5        0   19.20828E-01 0.107E+02 0.000E+00 0.223E+01 0.211E+01 0.152E+03 0.103E+01 0.905E-01 0.869E+00 0.725E+01 0.490E-03 0.828E-03 0.101E-03 0.734E-04 0.254E-04 0.811E-04 0.625E+01 0.117E-01 0.257E-03 .26101E-07 0.140E-02 0.602E+00 0.000E+00 0.000E+00 0.000E+00
BIGSUB   6        0   19.35910E-02 0.107E+02 0.000E+00 0.223E+01 0.214E+01 0.160E+03 0.145E+01 0.238E+00 0.120E+01 0.715E+01 0.139E-07 0.100E-08 0.100E-08 0.164E-03 0.729E-04 0.200E-08 0.567E+01 0.791E-02 0.369E-03 .74784E-07 0.000E+00 0.594E+00 0.000E+00 0.000E+00 0.000E+00
BIGSUB   7        0   19.76644E-01 0.107E+02 0.000E+00 0.223E+01 0.219E+01 0.114E+03 0.463E+00 0.321E+00 0.358E+00 0.695E+01 0.442E-02 0.752E-02 0.919E-03 0.490E-03 0.536E-04 0.732E-03 0.625E+01 0.103E-01 0.124E-03 .18976E-04 0.266E-01 0.572E+00 0.000E+00 0.000E+00 0.000E+00
BIGSUB   1        0   20.74695E-01 0.860E+01 0.000E+00 0.457E+01 0.385E+01 0.979E+02 0.346E+00 0.178E-01 0.118E+00 0.637E+01 0.107E-08 0.100E-08 0.100E-08 0.942E-05 0.436E-05 0.200E-08 0.623E+01 0.124E-01 0.392E-04 .56321E-09 0.000E+00 0.526E+00 0.000E+00 0.000E+00 0.000E+00
BIGSUB   2        0   20.72232E-01 0.860E+01 0.000E+00 0.457E+01 0.386E+01 0.982E+02 0.299E+00 0.542E-02 0.104E+00 0.640E+01 0.111E-08 0.100E-08 0.100E-08 0.310E-05 0.145E-05 0.200E-08 0.628E+01 0.129E-01 0.340E-04 .19332E-09 0.000E+00 0.528E+00 0.000E+00 0.000E+00 0.000E+00
BIGSUB   3        0   20.12200E+00 0.860E+01 0.000E+00 0.457E+01 0.387E+01 0.105E+03 0.304E+00 0.510E-03 0.144E+00 0.646E+01 0.439E-09 0.999E-09 0.999E-09 0.880E-08 0.134E-06 0.200E-08 0.630E+01 0.132E-01 0.478E-04 .43160E-12 0.000E+00 0.533E+00 0.000E+00 0.000E+00 0.000E+00
BIGSUB   4        0   20.11502E+00 0.860E+01 0.000E+00 0.458E+01 0.387E+01 0.980E+02 0.258E+00 0.100E-05 0.835E-01 0.642E+01 0.261E-09 0.100E-08 0.100E-08 0.100E-08 0.100E-08 0.200E-08 0.633E+01 0.133E-01 0.309E-04 .19438E-23 0.000E+00 0.530E+00 0.000E+00 0.000E+00 0.000E+00
BIGSUB   5        0   20.20828E-01 0.860E+01 0.000E+00 0.456E+01 0.374E+01 0.151E+03 0.105E+01 0.274E-01 0.888E+00 0.665E+01 0.384E-08 0.100E-08 0.100E-08 0.191E-04 0.810E-05 0.200E-08 0.570E+01 0.118E-01 0.267E-03 .11542E-08 0.000E+00 0.549E+00 0.000E+00 0.000E+00 0.000E+00
BIGSUB   6        0   20.35910E-02 0.860E+01 0.000E+00 0.455E+01 0.377E+01 0.158E+03 0.144E+01 0.845E-01 0.122E+01 0.654E+01 0.139E-07 0.100E-08 0.100E-08 0.564E-04 0.259E-04 0.200E-08 0.519E+01 0.774E-02 0.383E-03 .38723E-08 0.000E+00 0.540E+00 0.000E+00 0.000E+00 0.000E+00
BIGSUB   7        0   20.76644E-01 0.860E+01 0.000E+00 0.456E+01 0.385E+01 0.112E+03 0.554E+00 0.188E+00 0.365E+00 0.642E+01 0.157E-08 0.289E-03 0.353E-04 0.386E-03 0.338E-04 0.273E-04 0.586E+01 0.120E-01 0.129E-03 .15283E-04 0.184E-08 0.530E+00 0.000E+00 0.000E+00 0.000E+00
BIGSUB   1        0   21.74695E-01 0.180E+01 0.000E+00 0.444E+01 0.321E+01 0.961E+02 0.000E+00 0.100E-05 0.120E+00 0.251E+01 0.107E-08 0.100E-08 0.100E-08 0.100E-08 0.100E-08 0.200E-08 0.238E+01 0.428E-02 0.402E-04 .13098E-22 0.000E+00 0.208E+00 0.000E+00 0.000E+00 0.000E+00
BIGSUB   2        0   21.72232E-01 0.180E+01 0.000E+00 0.444E+01 0.322E+01 0.964E+02 0.000E+00 0.100E-05 0.106E+00 0.251E+01 0.111E-08 0.100E-08 0.100E-08 0.100E-08 0.100E-08 0.200E-08 0.240E+01 0.446E-02 0.349E-04 .12961E-22 0.000E+00 0.208E+00 0.000E+00 0.000E+00 0.000E+00
BIGSUB   3        0   21.12200E+00 0.180E+01 0.000E+00 0.444E+01 0.323E+01 0.103E+03 0.000E+00 0.308E-03 0.147E+00 0.256E+01 0.439E-09 0.999E-09 0.999E-09 0.570E-08 0.810E-07 0.200E-08 0.240E+01 0.454E-02 0.491E-04 .95312E-13 0.000E+00 0.212E+00 0.000E+00 0.000E+00 0.000E+00
BIGSUB   4        0   21.11502E+00 0.180E+01 0.000E+00 0.444E+01 0.322E+01 0.962E+02 0.000E+00 0.100E-05 0.848E-01 0.251E+01 0.261E-09 0.100E-08 0.100E-08 0.100E-08 0.100E-08 0.200E-08 0.242E+01 0.460E-02 0.317E-04 .12948E-22 0.000E+00 0.207E+00 0.000E+00 0.000E+00 0.000E+00
BIGSUB   5        0   21.20828E-01 0.180E+01 0.000E+00 0.444E+01 0.327E+01 0.149E+03 0.000E+00 0.100E-05 0.904E+00 0.310E+01 0.384E-08 0.100E-08 0.100E-08 0.100E-08 0.100E-08 0.200E-08 0.216E+01 0.424E-02 0.275E-03 .88591E-23 0.000E+00 0.256E+00 0.000E+00 0.000E+00 0.000E+00
BIGSUB   6        0   21.35910E-02 0.180E+01 0.000E+00 0.445E+01 0.331E+01 0.156E+03 0.000E+00 0.100E-05 0.124E+01 0.322E+01 0.139E-07 0.100E-08 0.100E-08 0.100E-08 0.100E-08 0.200E-08 0.193E+01 0.269E-02 0.394E-03 .80529E-23 0.000E+00 0.266E+00 0.000E+00 0.000E+00 0.000E+00
BIGSUB   7        0   21.76644E-01 0.180E+01 0.000E+00 0.444E+01 0.328E+01 0.111E+03 0.382E-02 0.974E-02 0.371E+00 0.262E+01 0.157E-08 0.100E-08 0.100E-08 0.528E-04 0.178E-05 0.200E-08 0.223E+01 0.418E-02 0.132E-03 .20793E-05 0.000E+00 0.217E+00 0.000E+00 0.000E+00 0.000E+00
BIGSUB   1        0   22.74695E-01 0.810E+01 0.000E+00 0.437E+01 0.370E+01 0.970E+02 0.643E-02 0.945E-02 0.122E+00 0.323E+01 0.107E-08 0.100E-08 0.100E-08 0.709E-05 0.234E-05 0.200E-08 0.309E+01 0.169E-02 0.409E-04 .45397E-09 0.000E+00 0.269E+00 0.000E+00 0.000E+00 0.000E+00
BIGSUB   2        0   22.72232E-01 0.810E+01 0.000E+00 0.437E+01 0.371E+01 0.973E+02 0.409E-03 0.298E-02 0.107E+00 0.323E+01 0.111E-08 0.100E-08 0.100E-08 0.249E-05 0.810E-06 0.200E-08 0.311E+01 0.170E-02 0.355E-04 .16775E-09 0.000E+00 0.268E+00 0.000E+00 0.000E+00 0.000E+00
BIGSUB   3        0   22.12200E+00 0.810E+01 0.000E+00 0.437E+01 0.371E+01 0.104E+03 0.710E-02 0.186E-03 0.149E+00 0.325E+01 0.439E-09 0.999E-09 0.999E-09 0.383E-08 0.492E-07 0.200E-08 0.309E+01 0.174E-02 0.500E-04 .20877E-13 0.000E+00 0.270E+00 0.000E+00 0.000E+00 0.000E+00
BIGSUB   4        0   22.11502E+00 0.810E+01 0.000E+00 0.437E+01 0.372E+01 0.971E+02 0.917E-03 0.100E-05 0.859E-01 0.322E+01 0.261E-09 0.100E-08 0.100E-08 0.100E-08 0.100E-08 0.200E-08 0.313E+01 0.170E-02 0.322E-04 .77687E-23 0.000E+00 0.268E+00 0.000E+00 0.000E+00 0.000E+00
BIGSUB   5        0   22.20828E-01 0.810E+01 0.000E+00 0.436E+01 0.362E+01 0.150E+03 0.383E-01 0.158E-01 0.918E+00 0.366E+01 0.384E-08 0.100E-08 0.100E-08 0.147E-04 0.471E-05 0.200E-08 0.269E+01 0.301E-02 0.280E-03 .95275E-09 0.000E+00 0.304E+00 0.000E+00 0.000E+00 0.000E+00
BIGSUB   6        0   22.35910E-02 0.810E+01 0.000E+00 0.436E+01 0.365E+01 0.158E+03 0.525E-01 0.501E-01 0.126E+01 0.377E+01 0.139E-07 0.100E-08 0.100E-08 0.491E-04 0.155E-04 0.200E-08 0.241E+01 0.180E-02 0.401E-03 .34941E-08 0.000E+00 0.313E+00 0.000E+00 0.000E+00 0.000E+00
BIGSUB   7        0   22.76644E-01 0.810E+01 0.000E+00 0.436E+01 0.371E+01 0.112E+03 0.125E-01 0.166E+00 0.376E+00 0.341E+01 0.286E-04 0.126E-03 0.153E-04 0.499E-03 0.301E-04 0.119E-04 0.286E+01 0.197E-02 0.135E-03 .19892E-04 0.424E-03 0.283E+00 0.000E+00 0.000E+00 0.000E+00
BIGSUB   1        0   23.74695E-01 0.000E+00 0.000E+00 0.417E+01 0.216E+01 0.949E+02 0.000E+00 0.100E-05 0.124E+00 0.120E+01 0.107E-08 0.100E-08 0.100E-08 0.100E-08 0.100E-08 0.200E-08 0.107E+01 0.585E-03 0.413E-04 .63256E-22 0.000E+00 0.987E-01 0.000E+00 0.000E+00 0.000E+00
BIGSUB   2        0   23.72232E-01 0.000E+00 0.000E+00 0.418E+01 0.217E+01 0.952E+02 0.000E+00 0.100E-05 0.108E+00 0.118E+01 0.111E-08 0.100E-08 0.100E-08 0.100E-08 0.100E-08 0.200E-08 0.107E+01 0.584E-03 0.359E-04 .62999E-22 0.000E+00 0.977E-01 0.000E+00 0.000E+00 0.000E+00
BIGSUB   3        0   23.12200E+00 0.000E+00 0.000E+00 0.417E+01 0.218E+01 0.102E+03 0.000E+00 0.113E-03 0.151E+00 0.122E+01 0.439E-09 0.999E-09 0.999E-09 0.271E-08 0.301E-07 0.200E-08 0.106E+01 0.599E-03 0.506E-04 .45600E-14 0.000E+00 0.101E+00 0.000E+00 0.000E+00 0.000E+00
BIGSUB   4        0   23.11502E+00 0.000E+00 0.000E+00 0.417E+01 0.217E+01 0.949E+02 0.000E+00 0.100E-05 0.868E-01 0.117E+01 0.261E-09 0.100E-08 0.100E-08 0.100E-08 0.100E-08 0.200E-08 0.107E+01 0.585E-03 0.326E-04 .63640E-22 0.000E+00 0.963E-01 0.000E+00 0.000E+00 0.000E+00
BIGSUB   5        0   23.20828E-01 0.000E+00 0.000E+00 0.418E+01 0.223E+01 0.148E+03 0.000E+00 0.100E-05 0.929E+00 0.190E+01 0.384E-08 0.100E-08 0.100E-08 0.100E-08 0.100E-08 0.200E-08 0.938E+00 0.105E-02 0.283E-03 .29125E-22 0.000E+00 0.157E+00 0.000E+00 0.000E+00 0.000E+00
BIGSUB   6        0   23.35910E-02 0.000E+00 0.000E+00 0.418E+01 0.226E+01 0.156E+03 0.000E+00 0.100E-05 0.127E+01 0.215E+01 0.139E-07 0.100E-08 0.100E-08 0.100E-08 0.100E-08 0.200E-08 0.830E+00 0.620E-03 0.405E-03 .18690E-22 0.000E+00 0.177E+00 0.000E+00 0.000E+00 0.000E+00
BIGSUB   7        0   23.76644E-01 0.000E+00 0.000E+00 0.418E+01 0.225E+01 0.109E+03 0.340E-02 0.216E-05 0.380E+00 0.138E+01 0.157E-08 0.100E-08 0.100E-08 0.694E-08 0.120E-08 0.200E-08 0.982E+00 0.680E-03 0.137E-03 .14180E-12 0.000E+00 0.114E+00 0.000E+00 0.000E+00 0.000E+00
BIGSUB   1        0   24.74695E-01 0.000E+00 0.000E+00 0.475E+01 0.191E+01 0.929E+02 0.000E+00 0.100E-05 0.125E+00 0.499E+00 0.107E-08 0.100E-08 0.100E-08 0.100E-08 0.100E-08 0.200E-08 0.367E+00 0.203E-03 0.414E-04 .51507E-21 0.000E+00 0.415E-01 0.000E+00 0.000E+00 0.000E+00
BIGSUB   2        0   24.72232E-01 0.000E+00 0.000E+00 0.475E+01 0.192E+01 0.932E+02 0.000E+00 0.100E-05 0.109E+00 0.482E+00 0.111E-08 0.100E-08 0.100E-08 0.100E-08 0.100E-08 0.200E-08 0.367E+00 0.200E-03 0.360E-04 .51866E-21 0.000E+00 0.401E-01 0.000E+00 0.000E+00 0.000E+00
BIGSUB   3        0   24.12200E+00 0.000E+00 0.000E+00 0.475E+01 0.194E+01 0.100E+03 0.000E+00 0.682E-04 0.152E+00 0.525E+00 0.439E-09 0.999E-09 0.999E-09 0.203E-08 0.185E-07 0.200E-08 0.365E+00 0.206E-03 0.508E-04 .99576E-15 0.000E+00 0.436E-01 0.000E+00 0.000E+00 0.000E+00
BIGSUB   4        0   24.11502E+00 0.000E+00 0.000E+00 0.475E+01 0.192E+01 0.930E+02 0.000E+00 0.100E-05 0.875E-01 0.462E+00 0.261E-09 0.100E-08 0.100E-08 0.100E-08 0.100E-08 0.200E-08 0.369E+00 0.201E-03 0.327E-04 .52758E-21 0.000E+00 0.384E-01 0.000E+00 0.000E+00 0.000E+00
BIGSUB   5        0   24.20828E-01 0.000E+00 0.000E+00 0.475E+01 0.202E+01 0.146E+03 0.000E+00 0.100E-05 0.938E+00 0.130E+01 0.384E-08 0.100E-08 0.100E-08 0.100E-08 0.100E-08 0.200E-08 0.329E+00 0.371E-03 0.284E-03 .13788E-21 0.000E+00 0.108E+00 0.000E+00 0.000E+00 0.000E+00
BIGSUB   6        0   24.35910E-02 0.000E+00 0.000E+00 0.474E+01 0.206E+01 0.154E+03 0.000E+00 0.100E-05 0.129E+01 0.162E+01 0.139E-07 0.100E-08 0.100E-08 0.100E-08 0.100E-08 0.200E-08 0.285E+00 0.213E-03 0.407E-03 .37499E-22 0.000E+00 0.134E+00 0.000E+00 0.000E+00 0.000E+00
BIGSUB   7        0   24.76644E-01 0.000E+00 0.000E+00 0.475E+01 0.199E+01 0.107E+03 0.319E-02 0.100E-05 0.384E+00 0.737E+00 0.157E-08 0.100E-08 0.100E-08 0.100E-08 0.100E-08 0.200E-08 0.338E+00 0.236E-03 0.137E-03 .56026E-18 0.000E+00 0.613E-01 0.000E+00 0.000E+00 0.000E+00
BIGSUB   1        0   25.74695E-01 0.660E+01 0.000E+00 0.538E+01 0.353E+01 0.935E+02 0.000E+00 0.263E-03 0.126E+00 0.193E+01 0.107E-08 0.100E-08 0.100E-08 0.472E-06 0.712E-07 0.200E-08 0.179E+01 0.282E-03 0.413E-04 .28969E-12 0.000E+00 0.158E+00 0.000E+00 0.000E+00 0.000E+00
BIGSUB   2        0   25.72232E-01 0.660E+01 0.000E+00 0.538E+01 0.352E+01 0.937E+02 0.000E+00 0.125E-03 0.110E+00 0.193E+01 0.111E-08 0.100E-08 0.100E-08 0.262E-06 0.375E-07 0.200E-08 0.181E+01 0.246E-03 0.359E-04 .27000E-12 0.000E+00 0.158E+00 0.000E+00 0.000E+00 0.000E+00
BIGSUB   3        0   25.12200E+00 0.660E+01 0.000E+00 0.538E+01 0.354E+01 0.101E+03 0.000E+00 0.415E-04 0.154E+00 0.196E+01 0.439E-09 0.999E-09 0.999E-09 0.162E-08 0.116E-07 0.200E-08 0.180E+01 0.266E-03 0.507E-04 .21771E-15 0.000E+00 0.160E+00 0.000E+00 0.000E+00 0.000E+00
BIGSUB   4        0   25.11502E+00 0.660E+01 0.000E+00 0.538E+01 0.352E+01 0.935E+02 0.000E+00 0.100E-05 0.880E-01 0.192E+01 0.261E-09 0.100E-08 0.100E-08 0.100E-08 0.100E-08 0.200E-08 0.183E+01 0.222E-03 0.326E-04 .22059E-22 0.000E+00 0.157E+00 0.000E+00 0.000E+00 0.000E+00
BIGSUB   5        0   25.20828E-01 0.660E+01 0.000E+00 0.537E+01 0.370E+01 0.147E+03 0.000E+00 0.105E-02 0.945E+00 0.236E+01 0.384E-08 0.100E-08 0.100E-08 0.210E-05 0.326E-06 0.200E-08 0.138E+01 0.141E-02 0.284E-03 .19787E-11 0.000E+00 0.193E+00 0.000E+00 0.000E+00 0.000E+00
BIGSUB   6        0   25.35910E-02 0.660E+01 0.000E+00 0.537E+01 0.382E+01 0.155E+03 0.000E+00 0.341E-02 0.129E+01 0.248E+01 0.139E-07 0.100E-08 0.100E-08 0.729E-05 0.109E-05 0.200E-08 0.113E+01 0.370E-03 0.407E-03 .80586E-11 0.000E+00 0.203E+00 0.000E+00 0.000E+00 0.000E+00
BIGSUB   7        0   25.76644E-01 0.660E+01 0.000E+00 0.537E+01 0.363E+01 0.108E+03 0.296E-02 0.113E+00 0.386E+00 0.211E+01 0.157E-08 0.100E-08 0.100E-08 0.602E-03 0.207E-04 0.200E-08 0.160E+01 0.431E-03 0.137E-03 .24030E-04 0.000E+00 0.173E+00 0.000E+00 0.000E+00 0.000E+00
BIGSUB   1        0   26.74695E-01 0.000E+00 0.000E+00 0.499E+01 0.206E+01 0.914E+02 0.000E+00 0.100E-05 0.127E+00 0.750E+00 0.107E-08 0.100E-08 0.100E-08 0.100E-08 0.100E-08 0.200E-08 0.617E+00 0.977E-04 0.410E-04 .17957E-21 0.000E+00 0.614E-01 0.000E+00 0.000E+00 0.000E+00
BIGSUB   2        0   26.72232E-01 0.000E+00 0.000E+00 0.499E+01 0.206E+01 0.917E+02 0.000E+00 0.100E-05 0.110E+00 0.739E+00 0.111E-08 0.100E-08 0.100E-08 0.100E-08 0.100E-08 0.200E-08 0.622E+00 0.844E-04 0.357E-04 .17850E-21 0.000E+00 0.605E-01 0.000E+00 0.000E+00 0.000E+00
BIGSUB   3        0   26.12200E+00 0.000E+00 0.000E+00 0.499E+01 0.208E+01 0.986E+02 0.000E+00 0.254E-04 0.154E+00 0.779E+00 0.439E-09 0.999E-09 0.999E-09 0.137E-08 0.737E-08 0.200E-08 0.617E+00 0.913E-04 0.504E-04 .47701E-16 0.000E+00 0.638E-01 0.000E+00 0.000E+00 0.000E+00
BIGSUB   4        0   26.11502E+00 0.000E+00 0.000E+00 0.499E+01 0.206E+01 0.914E+02 0.000E+00 0.100E-05 0.883E-01 0.722E+00 0.261E-09 0.100E-08 0.100E-08 0.100E-08 0.100E-08 0.200E-08 0.628E+00 0.765E-04 0.324E-04 .18088E-21 0.000E+00 0.591E-01 0.000E+00 0.000E+00 0.000E+00
BIGSUB   5        0   26.20828E-01 0.000E+00 0.000E+00 0.498E+01 0.224E+01 0.145E+03 0.000E+00 0.100E-05 0.950E+00 0.146E+01 0.384E-08 0.100E-08 0.100E-08 0.100E-08 0.100E-08 0.200E-08 0.477E+00 0.487E-03 0.282E-03 .64963E-22 0.000E+00 0.120E+00 0.000E+00 0.000E+00 0.000E+00
BIGSUB   6        0   26.35910E-02 0.000E+00 0.000E+00 0.498E+01 0.232E+01 0.153E+03 0.000E+00 0.100E-05 0.130E+01 0.174E+01 0.139E-07 0.100E-08 0.100E-08 0.100E-08 0.100E-08 0.200E-08 0.390E+00 0.127E-03 0.404E-03 .30708E-22 0.000E+00 0.142E+00 0.000E+00 0.000E+00 0.000E+00
BIGSUB   7        0   26.76644E-01 0.000E+00 0.000E+00 0.498E+01 0.215E+01 0.106E+03 0.268E-02 0.177E-05 0.388E+00 0.954E+00 0.157E-08 0.100E-08 0.100E-08 0.817E-08 0.113E-08 0.200E-08 0.550E+00 0.149E-03 0.136E-03 .74114E-13 0.000E+00 0.781E-01 0.000E+00 0.000E+00 0.000E+00
BIGSUB   1        0   27.74695E-01 0.840E+01 0.000E+00 0.501E+01 0.348E+01 0.929E+02 0.000E+00 0.920E-02 0.127E+00 0.260E+01 0.107E-08 0.100E-08 0.100E-08 0.109E-04 0.233E-05 0.200E-08 0.245E+01 0.268E-03 0.406E-04 .12611E-08 0.000E+00 0.213E+00 0.000E+00 0.000E+00 0.000E+00
BIGSUB   2        0   27.72232E-01 0.840E+01 0.000E+00 0.501E+01 0.347E+01 0.932E+02 0.000E+00 0.307E-02 0.111E+00 0.260E+01 0.111E-08 0.100E-08 0.100E-08 0.405E-05 0.857E-06 0.200E-08 0.248E+01 0.229E-03 0.352E-04 .57493E-09 0.000E+00 0.213E+00 0.000E+00 0.000E+00 0.000E+00
BIGSUB   3        0   27.12200E+00 0.840E+01 0.000E+00 0.501E+01 0.348E+01 0.100E+03 0.000E+00 0.157E-04 0.155E+00 0.263E+01 0.439E-09 0.999E-09 0.999E-09 0.122E-08 0.484E-08 0.200E-08 0.246E+01 0.250E-03 0.499E-04 .10479E-16 0.000E+00 0.215E+00 0.000E+00 0.000E+00 0.000E+00
BIGSUB   4        0   27.11502E+00 0.840E+01 0.000E+00 0.501E+01 0.346E+01 0.929E+02 0.000E+00 0.100E-05 0.885E-01 0.260E+01 0.261E-09 0.100E-08 0.100E-08 0.100E-08 0.100E-08 0.200E-08 0.251E+01 0.203E-03 0.320E-04 .11881E-22 0.000E+00 0.213E+00 0.000E+00 0.000E+00 0.000E+00
BIGSUB   5        0   27.20828E-01 0.840E+01 0.000E+00 0.500E+01 0.372E+01 0.147E+03 0.000E+00 0.174E-01 0.953E+00 0.287E+01 0.384E-08 0.100E-08 0.100E-08 0.244E-04 0.532E-05 0.200E-08 0.187E+01 0.149E-02 0.279E-03 .33992E-08 0.000E+00 0.235E+00 0.000E+00 0.000E+00 0.000E+00
BIGSUB   6        0   27.35910E-02 0.840E+01 0.000E+00 0.500E+01 0.389E+01 0.155E+03 0.000E+00 0.555E-01 0.130E+01 0.295E+01 0.139E-07 0.100E-08 0.100E-08 0.825E-04 0.176E-04 0.200E-08 0.154E+01 0.396E-03 0.400E-03 .12844E-07 0.000E+00 0.241E+00 0.000E+00 0.000E+00 0.000E+00
BIGSUB   7        0   27.76644E-01 0.840E+01 0.000E+00 0.500E+01 0.360E+01 0.107E+03 0.244E-02 0.161E+00 0.388E+00 0.275E+01 0.246E-04 0.108E-03 0.132E-04 0.745E-03 0.293E-04 0.102E-04 0.219E+01 0.439E-03 0.135E-03 .29657E-04 0.522E-03 0.225E+00 0.000E+00 0.000E+00 0.000E+00
BIGSUB   1        0   28.74695E-01 0.282E+02 0.000E+00 0.449E+01 0.379E+01 0.968E+02 0.279E+00 0.523E+01 0.128E+00 0.161E+02 0.420E+00 0.623E+00 0.761E-01 0.406E-03 0.423E-03 0.612E-01 0.107E+02 0.865E-02 0.404E-04 .25514E-02 0.364E+02 0.951E+00 0.000E+00 0.000E+00 0.000E+00
BIGSUB   2        0   28.72232E-01 0.282E+02 0.000E+00 0.449E+01 0.380E+01 0.970E+02 0.233E+00 0.500E+01 0.111E+00 0.160E+02 0.595E+00 0.692E+00 0.845E-01 0.311E-03 0.304E-03 0.682E-01 0.109E+02 0.846E-02 0.351E-04 .28239E-02 0.479E+02 0.944E+00 0.000E+00 0.000E+00 0.000E+00
BIGSUB   3        0   28.12200E+00 0.282E+02 0.000E+00 0.449E+01 0.381E+01 0.104E+03 0.239E+00 0.446E+01 0.155E+00 0.158E+02 0.786E+00 0.667E+00 0.815E-01 0.257E-03 0.223E-03 0.659E-01 0.111E+02 0.921E-02 0.496E-04 .26645E-02 0.575E+02 0.954E+00 0.000E+00 0.000E+00 0.000E+00
BIGSUB   4        0   28.11502E+00 0.282E+02 0.000E+00 0.449E+01 0.381E+01 0.968E+02 0.172E+00 0.487E+01 0.888E-01 0.159E+02 0.811E+00 0.733E+00 0.896E-01 0.252E-03 0.224E-03 0.725E-01 0.110E+02 0.825E-02 0.318E-04 .29851E-02 0.608E+02 0.930E+00 0.000E+00 0.000E+00 0.000E+00
BIGSUB   5        0   28.20828E-01 0.282E+02 0.000E+00 0.448E+01 0.370E+01 0.150E+03 0.193E+01 0.296E+01 0.958E+00 0.151E+02 0.496E-01 0.118E+00 0.144E-01 0.122E-02 0.751E-03 0.113E-01 0.111E+02 0.237E-01 0.278E-03 .30623E-03 0.394E+01 0.115E+01 0.000E+00 0.000E+00 0.000E+00
BIGSUB   6        0   28.35910E-02 0.282E+02 0.000E+00 0.447E+01 0.373E+01 0.158E+03 0.279E+01 0.385E+01 0.131E+01 0.153E+02 0.953E-02 0.608E-01 0.743E-02 0.843E-03 0.111E-02 0.566E-02 0.101E+02 0.147E-01 0.398E-03 .19725E-04 0.206E+00 0.124E+01 0.000E+00 0.000E+00 0.000E+00
BIGSUB   7        0   28.76644E-01 0.282E+02 0.000E+00 0.448E+01 0.380E+01 0.111E+03 0.781E+00 0.506E+01 0.390E+00 0.160E+02 0.346E+00 0.511E+00 0.625E-01 0.144E-02 0.552E-03 0.501E-01 0.105E+02 0.120E-01 0.134E-03 .22217E-02 0.296E+02 0.100E+01 0.000E+00 0.000E+00 0.000E+00
BIGSUB   1        0   29.74695E-01 0.709E+02 0.000E+00 0.325E+01 0.304E+01 0.987E+02 0.152E+01 0.354E+02 0.130E+00 0.582E+02 0.230E+01 0.410E+01 0.502E+00 0.799E-03 0.265E-02 0.403E+00 0.227E+02 0.429E-01 0.413E-04 .59436E-01 0.382E+03 0.213E+01 0.000E+00 0.000E+00 0.000E+00
BIGSUB   2        0   29.72232E-01 0.709E+02 0.000E+00 0.325E+01 0.305E+01 0.990E+02 0.135E+01 0.348E+02 0.112E+00 0.582E+02 0.325E+01 0.455E+01 0.557E+00 0.638E-03 0.206E-02 0.448E+00 0.233E+02 0.446E-01 0.359E-04 .65729E-01 0.503E+03 0.206E+01 0.000E+00 0.000E+00 0.000E+00
BIGSUB   3        0   29.12200E+00 0.709E+02 0.000E+00 0.325E+01 0.305E+01 0.106E+03 0.165E+01 0.329E+02 0.157E+00 0.575E+02 0.436E+01 0.461E+01 0.563E+00 0.602E-03 0.178E-02 0.455E+00 0.244E+02 0.483E-01 0.507E-04 .63437E-01 0.611E+03 0.212E+01 0.000E+00 0.000E+00 0.000E+00
BIGSUB   4        0   29.11502E+00 0.709E+02 0.000E+00 0.325E+01 0.305E+01 0.988E+02 0.119E+01 0.345E+02 0.898E-01 0.581E+02 0.443E+01 0.484E+01 0.591E+00 0.531E-03 0.163E-02 0.478E+00 0.236E+02 0.458E-01 0.325E-04 .69369E-01 0.638E+03 0.200E+01 0.000E+00 0.000E+00 0.000E+00
BIGSUB   5        0   29.20828E-01 0.709E+02 0.000E+00 0.324E+01 0.297E+01 0.151E+03 0.689E+01 0.267E+02 0.970E+00 0.534E+02 0.396E+00 0.152E+01 0.186E+00 0.333E-02 0.627E-02 0.144E+00 0.257E+02 0.607E-01 0.285E-03 .13518E-01 0.614E+02 0.296E+01 0.000E+00 0.000E+00 0.000E+00
BIGSUB   6        0   29.35910E-02 0.709E+02 0.000E+00 0.324E+01 0.299E+01 0.159E+03 0.888E+01 0.283E+02 0.132E+01 0.528E+02 0.208E+00 0.139E+01 0.170E+00 0.153E-02 0.671E-02 0.129E+00 0.232E+02 0.386E-01 0.407E-03 .88539E-02 0.272E+02 0.328E+01 0.000E+00 0.000E+00 0.000E+00
BIGSUB   7        0   29.76644E-01 0.709E+02 0.000E+00 0.324E+01 0.303E+01 0.113E+03 0.315E+01 0.335E+02 0.394E+00 0.569E+02 0.195E+01 0.367E+01 0.448E+00 0.205E-02 0.330E-02 0.358E+00 0.230E+02 0.463E-01 0.138E-03 .49731E-01 0.315E+03 0.229E+01 0.000E+00 0.000E+00 0.000E+00
BIGSUB   1        0   30.74695E-01 0.660E+01 0.000E+00 0.158E+01 0.156E+01 0.100E+03 0.618E-01 0.117E-02 0.131E+00 0.103E+02 0.107E-08 0.100E-08 0.100E-08 0.103E-05 0.280E-06 0.200E-08 0.101E+02 0.162E-01 0.420E-04 .16602E-12 0.000E+00 0.851E+00 0.000E+00 0.000E+00 0.000E+00
BIGSUB   2        0   30.72232E-01 0.660E+01 0.000E+00 0.158E+01 0.156E+01 0.101E+03 0.459E-01 0.378E-03 0.113E+00 0.104E+02 0.111E-08 0.100E-08 0.100E-08 0.359E-06 0.999E-07 0.200E-08 0.103E+02 0.166E-01 0.365E-04 .73288E-13 0.000E+00 0.864E+00 0.000E+00 0.000E+00 0.000E+00
BIGSUB   3        0   30.12200E+00 0.660E+01 0.000E+00 0.158E+01 0.156E+01 0.107E+03 0.518E-01 0.884E-02 0.159E+00 0.109E+02 0.439E-09 0.720E-05 0.882E-06 0.739E-07 0.238E-05 0.636E-06 0.107E+02 0.180E-01 0.515E-04 .24789E-08 0.000E+00 0.902E+00 0.000E+00 0.000E+00 0.000E+00
BIGSUB   4        0   30.11502E+00 0.660E+01 0.000E+00 0.158E+01 0.157E+01 0.100E+03 0.308E-01 0.101E-05 0.907E-01 0.105E+02 0.261E-09 0.142E-08 0.105E-08 0.100E-08 0.100E-08 0.204E-08 0.104E+02 0.170E-01 0.330E-04 .14957E-22 0.000E+00 0.872E+00 0.000E+00 0.000E+00 0.000E+00
BIGSUB   5        0   30.20828E-01 0.660E+01 0.000E+00 0.158E+01 0.151E+01 0.153E+03 0.396E+00 0.209E-02 0.980E+00 0.120E+02 0.384E-08 0.100E-08 0.100E-08 0.212E-05 0.601E-06 0.200E-08 0.110E+02 0.245E-01 0.290E-03 .56784E-12 0.000E+00 0.997E+00 0.000E+00 0.000E+00 0.000E+00
BIGSUB   6        0   30.35910E-02 0.660E+01 0.000E+00 0.158E+01 0.152E+01 0.160E+03 0.598E+00 0.663E-02 0.134E+01 0.113E+02 0.139E-07 0.100E-08 0.100E-08 0.705E-05 0.199E-05 0.200E-08 0.994E+01 0.158E-01 0.414E-03 .19124E-11 0.000E+00 0.941E+00 0.000E+00 0.000E+00 0.000E+00
BIGSUB   7        0   30.76644E-01 0.660E+01 0.000E+00 0.158E+01 0.156E+01 0.114E+03 0.165E+00 0.112E+00 0.398E+00 0.106E+02 0.157E-08 0.100E-08 0.100E-08 0.379E-03 0.201E-04 0.200E-08 0.101E+02 0.179E-01 0.140E-03 .15125E-04 0.000E+00 0.880E+00 0.000E+00 0.000E+00 0.000E+00
BIGSUB   1        0   31.74695E-01 0.381E+02 0.000E+00 0.112E+01 0.110E+01 0.101E+03 0.160E+01 0.118E+02 0.133E+00 0.306E+02 0.118E+01 0.154E+01 0.188E+00 0.310E-03 0.849E-03 0.151E+00 0.186E+02 0.473E-01 0.433E-04 .89713E-02 0.117E+03 0.165E+01 0.000E+00 0.000E+00 0.000E+00
BIGSUB   2        0   31.72232E-01 0.381E+02 0.000E+00 0.112E+01 0.111E+01 0.101E+03 0.143E+01 0.115E+02 0.115E+00 0.307E+02 0.167E+01 0.167E+01 0.204E+00 0.217E-03 0.634E-03 0.165E+00 0.190E+02 0.500E-01 0.376E-04 .96785E-02 0.153E+03 0.164E+01 0.000E+00 0.000E+00 0.000E+00
BIGSUB   3        0   31.12200E+00 0.381E+02 0.000E+00 0.112E+01 0.111E+01 0.108E+03 0.155E+01 0.106E+02 0.161E+00 0.304E+02 0.222E+01 0.159E+01 0.194E+00 0.184E-03 0.502E-03 0.157E+00 0.197E+02 0.519E-01 0.532E-04 .87956E-02 0.184E+03 0.168E+01 0.000E+00 0.000E+00 0.000E+00
BIGSUB   4        0   31.11502E+00 0.381E+02 0.000E+00 0.112E+01 0.111E+01 0.101E+03 0.128E+01 0.113E+02 0.920E-01 0.307E+02 0.228E+01 0.172E+01 0.211E+00 0.156E-03 0.485E-03 0.171E+00 0.193E+02 0.519E-01 0.341E-04 .99156E-02 0.194E+03 0.163E+01 0.000E+00 0.000E+00 0.000E+00
BIGSUB   5        0   31.20828E-01 0.381E+02 0.000E+00 0.112E+01 0.107E+01 0.153E+03 0.518E+01 0.735E+01 0.995E+00 0.279E+02 0.160E+00 0.425E+00 0.520E-01 0.142E-02 0.168E-02 0.405E-01 0.195E+02 0.451E-01 0.299E-03 .12734E-02 0.141E+02 0.197E+01 0.000E+00 0.000E+00 0.000E+00
BIGSUB   6        0   31.35910E-02 0.381E+02 0.000E+00 0.112E+01 0.108E+01 0.161E+03 0.668E+01 0.838E+01 0.136E+01 0.273E+02 0.521E-01 0.328E+00 0.401E-01 0.801E-03 0.210E-02 0.305E-01 0.175E+02 0.285E-01 0.428E-03 .29703E-03 0.253E+01 0.209E+01 0.000E+00 0.000E+00 0.000E+00
BIGSUB   7        0   31.76644E-01 0.381E+02 0.000E+00 0.112E+01 0.111E+01 0.115E+03 0.267E+01 0.111E+02 0.404E+00 0.299E+02 0.982E+00 0.130E+01 0.159E+00 0.107E-02 0.106E-02 0.127E+00 0.184E+02 0.458E-01 0.145E-03 .74139E-02 0.947E+02 0.171E+01 0.000E+00 0.000E+00 0.000E+00
BIGSUB   1        0   32.74695E-01 0.250E+01 0.000E+00 0.315E+01 0.298E+01 0.987E+02 0.621E-01 0.100E-05 0.135E+00 0.743E+01 0.107E-08 0.100E-08 0.100E-08 0.100E-08 0.100E-08 0.200E-08 0.729E+01 0.178E-01 0.443E-04 .14776E-23 0.000E+00 0.610E+00 0.000E+00 0.000E+00 0.000E+00
BIGSUB   2        0   32.72232E-01 0.250E+01 0.000E+00 0.315E+01 0.299E+01 0.991E+02 0.526E-01 0.100E-05 0.116E+00 0.754E+01 0.111E-08 0.100E-08 0.100E-08 0.100E-08 0.100E-08 0.200E-08 0.741E+01 0.187E-01 0.384E-04 .14259E-23 0.000E+00 0.619E+00 0.000E+00 0.000E+00 0.000E+00
BIGSUB   3        0   32.12200E+00 0.250E+01 0.000E+00 0.316E+01 0.299E+01 0.106E+03 0.547E-01 0.466E-02 0.163E+00 0.782E+01 0.439E-09 0.132E-07 0.249E-08 0.440E-07 0.125E-05 0.307E-08 0.765E+01 0.194E-01 0.545E-04 .97217E-10 0.000E+00 0.642E+00 0.000E+00 0.000E+00 0.000E+00
BIGSUB   4        0   32.11502E+00 0.250E+01 0.000E+00 0.316E+01 0.300E+01 0.989E+02 0.443E-01 0.100E-05 0.931E-01 0.761E+01 0.261E-09 0.116E-08 0.102E-08 0.100E-08 0.100E-08 0.201E-08 0.751E+01 0.194E-01 0.348E-04 .22424E-23 0.000E+00 0.624E+00 0.000E+00 0.000E+00 0.000E+00
BIGSUB   5        0   32.20828E-01 0.250E+01 0.000E+00 0.315E+01 0.292E+01 0.151E+03 0.207E+00 0.100E-05 0.101E+01 0.860E+01 0.384E-08 0.100E-08 0.100E-08 0.100E-08 0.100E-08 0.200E-08 0.756E+01 0.172E-01 0.306E-03 .11594E-23 0.000E+00 0.706E+00 0.000E+00 0.000E+00 0.000E+00
BIGSUB   6        0   32.35910E-02 0.250E+01 0.000E+00 0.315E+01 0.293E+01 0.159E+03 0.292E+00 0.100E-05 0.137E+01 0.819E+01 0.139E-07 0.100E-08 0.100E-08 0.100E-08 0.100E-08 0.200E-08 0.676E+01 0.108E-01 0.438E-03 .13969E-23 0.000E+00 0.672E+00 0.000E+00 0.000E+00 0.000E+00
BIGSUB   7        0   32.76644E-01 0.250E+01 0.000E+00 0.315E+01 0.298E+01 0.113E+03 0.106E+00 0.199E-01 0.409E+00 0.758E+01 0.157E-08 0.100E-08 0.100E-08 0.803E-04 0.356E-05 0.200E-08 0.714E+01 0.172E-01 0.148E-03 .31851E-05 0.000E+00 0.622E+00 0.000E+00 0.000E+00 0.000E+00
BIGSUB   1        0   33.74695E-01 0.580E+01 0.000E+00 0.841E+00 0.831E+00 0.101E+03 0.431E-01 0.100E-05 0.136E+00 0.452E+01 0.107E-08 0.100E-08 0.100E-08 0.100E-08 0.100E-08 0.200E-08 0.438E+01 0.696E-02 0.450E-04 .39882E-23 0.000E+00 0.374E+00 0.000E+00 0.000E+00 0.000E+00
BIGSUB   2        0   33.72232E-01 0.580E+01 0.000E+00 0.842E+00 0.835E+00 0.101E+03 0.319E-01 0.100E-05 0.118E+00 0.454E+01 0.111E-08 0.100E-08 0.100E-08 0.100E-08 0.100E-08 0.200E-08 0.442E+01 0.720E-02 0.390E-04 .39279E-23 0.000E+00 0.376E+00 0.000E+00 0.000E+00 0.000E+00
BIGSUB   3        0   33.12200E+00 0.580E+01 0.000E+00 0.841E+00 0.835E+00 0.108E+03 0.313E-01 0.273E-02 0.165E+00 0.467E+01 0.439E-09 0.150E-08 0.106E-08 0.262E-07 0.737E-06 0.204E-08 0.449E+01 0.749E-02 0.553E-04 .25695E-10 0.000E+00 0.386E+00 0.000E+00 0.000E+00 0.000E+00
BIGSUB   4        0   33.11502E+00 0.580E+01 0.000E+00 0.840E+00 0.835E+00 0.101E+03 0.207E-01 0.100E-05 0.940E-01 0.456E+01 0.261E-09 0.100E-08 0.100E-08 0.100E-08 0.100E-08 0.200E-08 0.446E+01 0.738E-02 0.353E-04 .39039E-23 0.000E+00 0.377E+00 0.000E+00 0.000E+00 0.000E+00
BIGSUB   5        0   33.20828E-01 0.580E+01 0.000E+00 0.844E+00 0.805E+00 0.153E+03 0.272E+00 0.100E-05 0.102E+01 0.539E+01 0.384E-08 0.100E-08 0.100E-08 0.100E-08 0.100E-08 0.200E-08 0.433E+01 0.854E-02 0.311E-03 .28777E-23 0.000E+00 0.446E+00 0.000E+00 0.000E+00 0.000E+00
BIGSUB   6        0   33.35910E-02 0.580E+01 0.000E+00 0.844E+00 0.814E+00 0.161E+03 0.425E+00 0.100E-05 0.139E+01 0.536E+01 0.139E-07 0.100E-08 0.100E-08 0.100E-08 0.100E-08 0.200E-08 0.393E+01 0.554E-02 0.445E-03 .29742E-23 0.000E+00 0.444E+00 0.000E+00 0.000E+00 0.000E+00
BIGSUB   7        0   33.76644E-01 0.580E+01 0.000E+00 0.843E+00 0.832E+00 0.115E+03 0.115E+00 0.947E-01 0.412E+00 0.473E+01 0.157E-08 0.100E-08 0.100E-08 0.237E-03 0.170E-04 0.200E-08 0.421E+01 0.722E-02 0.151E-03 .94620E-05 0.000E+00 0.392E+00 0.000E+00 0.000E+00 0.000E+00
BIGSUB   1        0   34.74695E-01 0.890E+01 0.000E+00 0.390E+01 0.344E+01 0.983E+02 0.468E+00 0.248E-01 0.138E+00 0.660E+01 0.501E-04 0.865E-04 0.106E-04 0.104E-04 0.533E-05 0.851E-05 0.643E+01 0.152E-01 0.456E-04 .94649E-09 0.520E-05 0.549E+00 0.000E+00 0.000E+00 0.000E+00
BIGSUB   2        0   34.72232E-01 0.890E+01 0.000E+00 0.389E+01 0.345E+01 0.986E+02 0.406E+00 0.875E-02 0.119E+00 0.663E+01 0.710E-04 0.932E-04 0.114E-04 0.350E-05 0.183E-05 0.920E-05 0.649E+01 0.158E-01 0.395E-04 .31494E-09 0.682E-05 0.551E+00 0.000E+00 0.000E+00 0.000E+00
BIGSUB   3        0   34.12200E+00 0.890E+01 0.000E+00 0.390E+01 0.345E+01 0.106E+03 0.417E+00 0.322E-02 0.167E+00 0.670E+01 0.933E-04 0.835E-04 0.102E-04 0.111E-06 0.502E-06 0.829E-05 0.652E+01 0.161E-01 0.561E-04 .66219E-11 0.816E-05 0.557E+00 0.000E+00 0.000E+00 0.000E+00
BIGSUB   4        0   34.11502E+00 0.890E+01 0.000E+00 0.390E+01 0.346E+01 0.984E+02 0.353E+00 0.178E-02 0.948E-01 0.665E+01 0.967E-04 0.948E-04 0.116E-04 0.111E-06 0.681E-07 0.939E-05 0.654E+01 0.163E-01 0.358E-04 .31610E-12 0.864E-05 0.553E+00 0.000E+00 0.000E+00 0.000E+00
BIGSUB   5        0   34.20828E-01 0.890E+01 0.000E+00 0.388E+01 0.336E+01 0.151E+03 0.140E+01 0.357E-01 0.103E+01 0.695E+01 0.384E-08 0.100E-08 0.100E-08 0.229E-04 0.987E-05 0.200E-08 0.585E+01 0.137E-01 0.316E-03 .18368E-08 0.000E+00 0.579E+00 0.000E+00 0.000E+00 0.000E+00
BIGSUB   6        0   34.35910E-02 0.890E+01 0.000E+00 0.388E+01 0.338E+01 0.159E+03 0.190E+01 0.107E+00 0.140E+01 0.690E+01 0.139E-07 0.100E-08 0.100E-08 0.614E-04 0.309E-04 0.200E-08 0.534E+01 0.875E-02 0.451E-03 .60545E-08 0.000E+00 0.574E+00 0.000E+00 0.000E+00 0.000E+00
BIGSUB   7        0   34.76644E-01 0.890E+01 0.000E+00 0.388E+01 0.344E+01 0.113E+03 0.746E+00 0.198E+00 0.416E+00 0.668E+01 0.138E-03 0.477E-03 0.583E-04 0.277E-03 0.350E-04 0.454E-04 0.605E+01 0.145E-01 0.153E-03 .10826E-04 0.164E-02 0.555E+00 0.000E+00 0.000E+00 0.000E+00
BIGSUB   1        0   35.74695E-01 0.241E+02 0.000E+00 0.361E+01 0.327E+01 0.985E+02 0.895E+00 0.390E+01 0.139E+00 0.167E+02 0.503E+00 0.589E+00 0.719E-01 0.172E-03 0.280E-03 0.579E-01 0.126E+02 0.281E-01 0.464E-04 .12433E-02 0.279E+02 0.109E+01 0.000E+00 0.000E+00 0.000E+00
BIGSUB   2        0   35.72232E-01 0.241E+02 0.000E+00 0.361E+01 0.327E+01 0.988E+02 0.790E+00 0.372E+01 0.120E+00 0.167E+02 0.713E+00 0.633E+00 0.774E-01 0.118E-03 0.195E-03 0.625E-01 0.128E+02 0.296E-01 0.403E-04 .13261E-02 0.366E+02 0.109E+01 0.000E+00 0.000E+00 0.000E+00
BIGSUB   3        0   35.12200E+00 0.241E+02 0.000E+00 0.361E+01 0.328E+01 0.106E+03 0.852E+00 0.329E+01 0.169E+00 0.165E+02 0.940E+00 0.576E+00 0.704E-01 0.876E-04 0.135E-03 0.571E-01 0.131E+02 0.304E-01 0.572E-04 .11822E-02 0.438E+02 0.110E+01 0.000E+00 0.000E+00 0.000E+00
BIGSUB   4        0   35.11502E+00 0.241E+02 0.000E+00 0.362E+01 0.328E+01 0.986E+02 0.694E+00 0.362E+01 0.959E-01 0.167E+02 0.971E+00 0.645E+00 0.788E-01 0.842E-04 0.139E-03 0.639E-01 0.130E+02 0.305E-01 0.364E-04 .13444E-02 0.463E+02 0.109E+01 0.000E+00 0.000E+00 0.000E+00
BIGSUB   5        0   35.20828E-01 0.241E+02 0.000E+00 0.361E+01 0.319E+01 0.151E+03 0.304E+01 0.197E+01 0.104E+01 0.154E+02 0.553E-01 0.973E-01 0.119E-01 0.575E-03 0.457E-03 0.940E-02 0.123E+02 0.269E-01 0.322E-03 .14819E-03 0.293E+01 0.120E+01 0.000E+00 0.000E+00 0.000E+00
BIGSUB   6        0   35.35910E-02 0.241E+02 0.000E+00 0.361E+01 0.321E+01 0.159E+03 0.401E+01 0.266E+01 0.142E+01 0.152E+02 0.620E-02 0.386E-01 0.471E-02 0.466E-03 0.733E-03 0.359E-02 0.111E+02 0.171E-01 0.460E-03 .44528E-05 0.559E-01 0.124E+01 0.000E+00 0.000E+00 0.000E+00
BIGSUB   7        0   35.76644E-01 0.241E+02 0.000E+00 0.361E+01 0.327E+01 0.113E+03 0.154E+01 0.379E+01 0.421E+00 0.164E+02 0.412E+00 0.475E+00 0.581E-01 0.657E-03 0.379E-03 0.466E-01 0.121E+02 0.273E-01 0.156E-03 .11244E-02 0.227E+02 0.111E+01 0.000E+00 0.000E+00 0.000E+00
BIGSUB   1        0   36.74695E-01 0.213E+02 0.000E+00 0.245E+01 0.242E+01 0.993E+02 0.808E+00 0.276E+01 0.141E+00 0.167E+02 0.107E-08 0.293E+00 0.358E-01 0.135E-03 0.199E-03 0.288E-01 0.138E+02 0.298E-01 0.474E-04 .30244E-03 0.543E-07 0.137E+01 0.000E+00 0.000E+00 0.000E+00
BIGSUB   2        0   36.72232E-01 0.213E+02 0.000E+00 0.245E+01 0.243E+01 0.996E+02 0.711E+00 0.261E+01 0.122E+00 0.168E+02 0.111E-08 0.314E+00 0.384E-01 0.862E-04 0.136E-03 0.310E-01 0.141E+02 0.314E-01 0.411E-04 .32058E-03 0.589E-08 0.138E+01 0.000E+00 0.000E+00 0.000E+00
BIGSUB   3        0   36.12200E+00 0.213E+02 0.000E+00 0.245E+01 0.243E+01 0.107E+03 0.761E+00 0.228E+01 0.171E+00 0.168E+02 0.439E-09 0.282E+00 0.344E-01 0.573E-04 0.895E-04 0.280E-01 0.143E+02 0.323E-01 0.585E-04 .28418E-03 0.317E-08 0.138E+01 0.000E+00 0.000E+00 0.000E+00
BIGSUB   4        0   36.11502E+00 0.213E+02 0.000E+00 0.245E+01 0.243E+01 0.994E+02 0.623E+00 0.253E+01 0.970E-01 0.168E+02 0.261E-09 0.318E+00 0.389E-01 0.568E-04 0.944E-04 0.316E-01 0.142E+02 0.324E-01 0.372E-04 .32377E-03 0.103E-07 0.138E+01 0.000E+00 0.000E+00 0.000E+00
BIGSUB   5        0   36.20828E-01 0.213E+02 0.000E+00 0.245E+01 0.234E+01 0.152E+03 0.271E+01 0.131E+01 0.105E+01 0.159E+02 0.384E-08 0.394E-01 0.482E-02 0.420E-03 0.305E-03 0.383E-02 0.135E+02 0.283E-01 0.330E-03 .35621E-04 0.637E-07 0.130E+01 0.000E+00 0.000E+00 0.000E+00
BIGSUB   6        0   36.35910E-02 0.213E+02 0.000E+00 0.245E+01 0.236E+01 0.160E+03 0.358E+01 0.191E+01 0.143E+01 0.155E+02 0.139E-07 0.715E-02 0.874E-03 0.417E-03 0.537E-03 0.665E-03 0.121E+02 0.181E-01 0.471E-03 .19430E-05 0.748E-08 0.127E+01 0.000E+00 0.000E+00 0.000E+00
BIGSUB   7        0   36.76644E-01 0.213E+02 0.000E+00 0.245E+01 0.242E+01 0.114E+03 0.138E+01 0.275E+01 0.426E+00 0.165E+02 0.157E-08 0.233E+00 0.284E-01 0.620E-03 0.282E-03 0.228E-01 0.133E+02 0.289E-01 0.160E-03 .30109E-03 0.402E-07 0.135E+01 0.000E+00 0.000E+00 0.000E+00
BIGSUB   1        0   37.74695E-01 0.330E+01 0.000E+00 0.179E+01 0.177E+01 0.997E+02 0.786E-02 0.100E-05 0.143E+00 0.563E+01 0.107E-08 0.100E-08 0.100E-08 0.100E-08 0.100E-08 0.200E-08 0.548E+01 0.103E-01 0.481E-04 .25570E-23 0.000E+00 0.472E+00 0.000E+00 0.000E+00 0.000E+00
BIGSUB   2        0   37.72232E-01 0.330E+01 0.000E+00 0.179E+01 0.177E+01 0.100E+03 0.495E-02 0.100E-05 0.123E+00 0.569E+01 0.111E-08 0.100E-08 0.100E-08 0.100E-08 0.100E-08 0.200E-08 0.556E+01 0.108E-01 0.417E-04 .24931E-23 0.000E+00 0.476E+00 0.000E+00 0.000E+00 0.000E+00
BIGSUB   3        0   37.12200E+00 0.330E+01 0.000E+00 0.179E+01 0.177E+01 0.107E+03 0.453E-02 0.516E-03 0.173E+00 0.582E+01 0.439E-09 0.999E-09 0.999E-09 0.736E-08 0.140E-06 0.200E-08 0.564E+01 0.112E-01 0.593E-04 .27963E-12 0.000E+00 0.487E+00 0.000E+00 0.000E+00 0.000E+00
BIGSUB   4        0   37.11502E+00 0.330E+01 0.000E+00 0.179E+01 0.178E+01 0.998E+02 0.146E-02 0.100E-05 0.979E-01 0.572E+01 0.261E-09 0.104E-08 0.100E-08 0.100E-08 0.100E-08 0.200E-08 0.561E+01 0.112E-01 0.377E-04 .24954E-23 0.000E+00 0.478E+00 0.000E+00 0.000E+00 0.000E+00
BIGSUB   5        0   37.20828E-01 0.330E+01 0.000E+00 0.179E+01 0.171E+01 0.153E+03 0.451E-01 0.100E-05 0.106E+01 0.638E+01 0.384E-08 0.100E-08 0.100E-08 0.100E-08 0.100E-08 0.200E-08 0.528E+01 0.103E-01 0.335E-03 .20314E-23 0.000E+00 0.534E+00 0.000E+00 0.000E+00 0.000E+00
BIGSUB   6        0   37.35910E-02 0.330E+01 0.000E+00 0.179E+01 0.172E+01 0.160E+03 0.780E-01 0.100E-05 0.145E+01 0.621E+01 0.139E-07 0.100E-08 0.100E-08 0.100E-08 0.100E-08 0.200E-08 0.471E+01 0.657E-02 0.478E-03 .22374E-23 0.000E+00 0.520E+00 0.000E+00 0.000E+00 0.000E+00
BIGSUB   7        0   37.76644E-01 0.330E+01 0.000E+00 0.179E+01 0.176E+01 0.114E+03 0.172E-01 0.368E-01 0.430E+00 0.572E+01 0.157E-08 0.100E-08 0.100E-08 0.129E-03 0.658E-05 0.200E-08 0.524E+01 0.101E-01 0.162E-03 .51493E-05 0.000E+00 0.479E+00 0.000E+00 0.000E+00 0.000E+00
BIGSUB   1        0   38.74695E-01 0.790E+01 0.000E+00 0.419E+01 0.382E+01 0.979E+02 0.311E+00 0.104E-01 0.144E+00 0.571E+01 0.107E-08 0.100E-08 0.100E-08 0.508E-05 0.232E-05 0.200E-08 0.555E+01 0.110E-01 0.486E-04 .12549E-09 0.000E+00 0.474E+00 0.000E+00 0.000E+00 0.000E+00
BIGSUB   2        0   38.72232E-01 0.790E+01 0.000E+00 0.419E+01 0.381E+01 0.983E+02 0.266E+00 0.317E-02 0.124E+00 0.573E+01 0.111E-08 0.100E-08 0.100E-08 0.173E-05 0.786E-06 0.200E-08 0.560E+01 0.115E-01 0.421E-04 .43593E-10 0.000E+00 0.475E+00 0.000E+00 0.000E+00 0.000E+00
BIGSUB   3        0   38.12200E+00 0.790E+01 0.000E+00 0.420E+01 0.381E+01 0.105E+03 0.273E+00 0.308E-03 0.174E+00 0.581E+01 0.439E-09 0.999E-09 0.999E-09 0.478E-08 0.839E-07 0.200E-08 0.563E+01 0.118E-01 0.600E-04 .62219E-13 0.000E+00 0.482E+00 0.000E+00 0.000E+00 0.000E+00
BIGSUB   4        0   38.11502E+00 0.790E+01 0.000E+00 0.420E+01 0.382E+01 0.980E+02 0.228E+00 0.100E-05 0.987E-01 0.574E+01 0.261E-09 0.100E-08 0.100E-08 0.100E-08 0.100E-08 0.200E-08 0.564E+01 0.118E-01 0.380E-04 .24348E-23 0.000E+00 0.476E+00 0.000E+00 0.000E+00 0.000E+00
BIGSUB   5        0   38.20828E-01 0.790E+01 0.000E+00 0.418E+01 0.376E+01 0.151E+03 0.102E+01 0.156E-01 0.107E+01 0.631E+01 0.384E-08 0.100E-08 0.100E-08 0.101E-04 0.425E-05 0.200E-08 0.518E+01 0.108E-01 0.339E-03 .25959E-09 0.000E+00 0.523E+00 0.000E+00 0.000E+00 0.000E+00
BIGSUB   6        0   38.35910E-02 0.790E+01 0.000E+00 0.418E+01 0.382E+01 0.158E+03 0.141E+01 0.494E-01 0.146E+01 0.628E+01 0.139E-07 0.100E-08 0.100E-08 0.334E-04 0.141E-04 0.200E-08 0.471E+01 0.714E-02 0.483E-03 .89174E-09 0.000E+00 0.520E+00 0.000E+00 0.000E+00 0.000E+00
BIGSUB   7        0   38.76644E-01 0.790E+01 0.000E+00 0.418E+01 0.380E+01 0.112E+03 0.523E+00 0.161E+00 0.434E+00 0.586E+01 0.316E-04 0.132E-03 0.161E-04 0.144E-03 0.283E-04 0.125E-04 0.525E+01 0.108E-01 0.164E-03 .57287E-05 0.278E-03 0.485E+00 0.000E+00 0.000E+00 0.000E+00
BIGSUB   1        0   39.74695E-01 0.706E+02 0.000E+00 0.247E+01 0.247E+01 0.993E+02 0.191E+01 0.355E+02 0.146E+00 0.568E+02 0.232E+01 0.322E+01 0.393E+00 0.147E-03 0.206E-02 0.316E+00 0.212E+02 0.406E-01 0.501E-04 .49312E-01 0.414E+03 0.198E+01 0.000E+00 0.000E+00 0.000E+00
BIGSUB   2        0   39.72232E-01 0.706E+02 0.000E+00 0.247E+01 0.247E+01 0.996E+02 0.172E+01 0.349E+02 0.126E+00 0.568E+02 0.329E+01 0.346E+01 0.423E+00 0.845E-04 0.151E-02 0.341E+00 0.217E+02 0.436E-01 0.435E-04 .52728E-01 0.544E+03 0.192E+01 0.000E+00 0.000E+00 0.000E+00
BIGSUB   3        0   39.12200E+00 0.706E+02 0.000E+00 0.247E+01 0.247E+01 0.107E+03 0.195E+01 0.330E+02 0.177E+00 0.560E+02 0.439E+01 0.337E+01 0.412E+00 0.104E-03 0.126E-02 0.333E+00 0.228E+02 0.464E-01 0.621E-04 .48502E-01 0.660E+03 0.197E+01 0.000E+00 0.000E+00 0.000E+00
BIGSUB   4        0   39.11502E+00 0.706E+02 0.000E+00 0.247E+01 0.247E+01 0.994E+02 0.154E+01 0.346E+02 0.100E+00 0.568E+02 0.448E+01 0.354E+01 0.432E+00 0.389E-04 0.110E-02 0.350E+00 0.220E+02 0.457E-01 0.393E-04 .53451E-01 0.690E+03 0.187E+01 0.000E+00 0.000E+00 0.000E+00
BIGSUB   5        0   39.20828E-01 0.706E+02 0.000E+00 0.246E+01 0.245E+01 0.152E+03 0.692E+01 0.265E+02 0.109E+01 0.513E+02 0.379E+00 0.125E+01 0.152E+00 0.175E-02 0.561E-02 0.118E+00 0.236E+02 0.415E-01 0.350E-03 .11741E-01 0.628E+02 0.277E+01 0.000E+00 0.000E+00 0.000E+00
BIGSUB   6        0   39.35910E-02 0.706E+02 0.000E+00 0.246E+01 0.246E+01 0.159E+03 0.882E+01 0.280E+02 0.148E+01 0.508E+02 0.183E+00 0.115E+01 0.140E+00 0.607E-03 0.609E-02 0.107E+00 0.213E+02 0.252E-01 0.500E-03 .79257E-02 0.249E+02 0.311E+01 0.000E+00 0.000E+00 0.000E+00
BIGSUB   7        0   39.76644E-01 0.706E+02 0.000E+00 0.246E+01 0.246E+01 0.114E+03 0.342E+01 0.336E+02 0.440E+00 0.554E+02 0.196E+01 0.289E+01 0.353E+00 0.686E-03 0.276E-02 0.282E+00 0.214E+02 0.404E-01 0.170E-03 .41137E-01 0.340E+03 0.214E+01 0.000E+00 0.000E+00 0.000E+00
BIGSUB   1        0   40.74695E-01 0.300E+00 0.000E+00 0.356E+01 0.247E+01 0.971E+02 0.000E+00 0.100E-05 0.148E+00 0.745E+01 0.107E-08 0.100E-08 0.100E-08 0.100E-08 0.100E-08 0.200E-08 0.729E+01 0.140E-01 0.512E-04 .15018E-23 0.000E+00 0.622E+00 0.000E+00 0.000E+00 0.000E+00
BIGSUB   2        0   40.72232E-01 0.300E+00 0.000E+00 0.356E+01 0.247E+01 0.974E+02 0.000E+00 0.100E-05 0.127E+00 0.759E+01 0.111E-08 0.100E-08 0.100E-08 0.100E-08 0.100E-08 0.200E-08 0.746E+01 0.150E-01 0.444E-04 .14247E-23 0.000E+00 0.634E+00 0.000E+00 0.000E+00 0.000E+00
BIGSUB   3        0   40.12200E+00 0.300E+00 0.000E+00 0.356E+01 0.247E+01 0.104E+03 0.176E-02 0.860E-02 0.179E+00 0.803E+01 0.439E-09 0.600E-05 0.735E-06 0.408E-07 0.227E-05 0.528E-06 0.783E+01 0.159E-01 0.635E-04 .16411E-08 0.000E+00 0.670E+00 0.000E+00 0.000E+00 0.000E+00
BIGSUB   4        0   40.11502E+00 0.300E+00 0.000E+00 0.357E+01 0.247E+01 0.972E+02 0.000E+00 0.101E-05 0.101E+00 0.768E+01 0.261E-09 0.132E-08 0.104E-08 0.100E-08 0.100E-08 0.203E-08 0.758E+01 0.157E-01 0.401E-04 .13322E-22 0.000E+00 0.642E+00 0.000E+00 0.000E+00 0.000E+00
BIGSUB   5        0   40.20828E-01 0.300E+00 0.000E+00 0.355E+01 0.251E+01 0.150E+03 0.000E+00 0.100E-05 0.111E+01 0.931E+01 0.384E-08 0.100E-08 0.100E-08 0.100E-08 0.100E-08 0.200E-08 0.817E+01 0.143E-01 0.358E-03 .10688E-23 0.000E+00 0.778E+00 0.000E+00 0.000E+00 0.000E+00
BIGSUB   6        0   40.35910E-02 0.300E+00 0.000E+00 0.355E+01 0.253E+01 0.157E+03 0.000E+00 0.100E-05 0.150E+01 0.886E+01 0.139E-07 0.100E-08 0.100E-08 0.100E-08 0.100E-08 0.200E-08 0.731E+01 0.866E-02 0.511E-03 .13826E-23 0.000E+00 0.740E+00 0.000E+00 0.000E+00 0.000E+00
BIGSUB   7        0   40.76644E-01 0.300E+00 0.000E+00 0.355E+01 0.251E+01 0.111E+03 0.271E-02 0.166E-04 0.445E+00 0.781E+01 0.157E-08 0.100E-08 0.100E-08 0.285E-08 0.365E-08 0.200E-08 0.735E+01 0.139E-01 0.174E-03 .43805E-11 0.000E+00 0.652E+00 0.000E+00 0.000E+00 0.000E+00
BIGSUB   1        0   41.74695E-01 0.000E+00 0.000E+00 0.240E+01 0.145E+01 0.956E+02 0.000E+00 0.100E-05 0.150E+00 0.267E+01 0.107E-08 0.100E-08 0.100E-08 0.100E-08 0.100E-08 0.200E-08 0.251E+01 0.481E-02 0.519E-04 .12194E-22 0.000E+00 0.220E+00 0.000E+00 0.000E+00 0.000E+00
BIGSUB   2        0   41.72232E-01 0.000E+00 0.000E+00 0.240E+01 0.145E+01 0.960E+02 0.000E+00 0.100E-05 0.128E+00 0.270E+01 0.111E-08 0.100E-08 0.100E-08 0.100E-08 0.100E-08 0.200E-08 0.256E+01 0.515E-02 0.451E-04 .11686E-22 0.000E+00 0.222E+00 0.000E+00 0.000E+00 0.000E+00
BIGSUB   3        0   41.12200E+00 0.000E+00 0.000E+00 0.240E+01 0.146E+01 0.103E+03 0.000E+00 0.482E-02 0.181E+00 0.289E+01 0.439E-09 0.248E-06 0.312E-07 0.234E-07 0.128E-05 0.237E-07 0.269E+01 0.548E-02 0.645E-04 .50960E-10 0.000E+00 0.238E+00 0.000E+00 0.000E+00 0.000E+00
BIGSUB   4        0   41.11502E+00 0.000E+00 0.000E+00 0.240E+01 0.145E+01 0.958E+02 0.000E+00 0.100E-05 0.102E+00 0.271E+01 0.261E-09 0.100E-08 0.100E-08 0.100E-08 0.100E-08 0.200E-08 0.260E+01 0.539E-02 0.407E-04 .11563E-22 0.000E+00 0.224E+00 0.000E+00 0.000E+00 0.000E+00
BIGSUB   5        0   41.20828E-01 0.000E+00 0.000E+00 0.240E+01 0.148E+01 0.148E+03 0.000E+00 0.100E-05 0.112E+01 0.399E+01 0.384E-08 0.100E-08 0.100E-08 0.100E-08 0.100E-08 0.200E-08 0.283E+01 0.496E-02 0.364E-03 .62900E-23 0.000E+00 0.329E+00 0.000E+00 0.000E+00 0.000E+00
BIGSUB   6        0   41.35910E-02 0.000E+00 0.000E+00 0.240E+01 0.152E+01 0.156E+03 0.000E+00 0.100E-05 0.152E+01 0.408E+01 0.139E-07 0.100E-08 0.100E-08 0.100E-08 0.100E-08 0.200E-08 0.251E+01 0.298E-02 0.518E-03 .61559E-23 0.000E+00 0.336E+00 0.000E+00 0.000E+00 0.000E+00
BIGSUB   7        0   41.76644E-01 0.000E+00 0.000E+00 0.240E+01 0.149E+01 0.110E+03 0.252E-02 0.100E-05 0.450E+00 0.300E+01 0.157E-08 0.100E-08 0.100E-08 0.100E-08 0.100E-08 0.200E-08 0.253E+01 0.479E-02 0.177E-03 .43704E-18 0.000E+00 0.247E+00 0.000E+00 0.000E+00 0.000E+00
[...]
BIGSUB   6        0  356.35910E-02 0.559E+02 0.000E+00 0.303E+01 0.289E+01 0.159E+03 0.822E+01 0.184E+02 0.628E+00 0.449E+02 0.139E-07 0.727E+00 0.892E-01 0.804E-03 0.318E-02 0.659E-01 0.258E+02 0.488E-01 0.132E-03 .42352E-02 0.285E-05 0.374E+01 0.000E+00 0.000E+00 0.000E+00
BIGSUB   7        0  356.76644E-01 0.559E+02 0.000E+00 0.303E+01 0.287E+01 0.113E+03 0.323E+01 0.227E+02 0.180E+00 0.488E+02 0.157E-08 0.134E+01 0.164E+00 0.350E-02 0.191E-02 0.126E+00 0.259E+02 0.560E-01 0.326E-04 .11429E-01 0.167E-06 0.407E+01 0.000E+00 0.000E+00 0.000E+00
BIGSUB   1        0  357.74695E-01 0.000E+00 0.000E+00 0.544E+01 0.300E+01 0.958E+02 0.000E+00 0.100E-05 0.622E-01 0.889E+01 0.107E-08 0.100E-08 0.100E-08 0.100E-08 0.100E-08 0.200E-08 0.882E+01 0.190E-01 0.179E-04 .10576E-23 0.000E+00 0.726E+00 0.000E+00 0.000E+00 0.000E+00
BIGSUB   2        0  357.72232E-01 0.000E+00 0.000E+00 0.544E+01 0.300E+01 0.962E+02 0.000E+00 0.100E-05 0.550E-01 0.907E+01 0.111E-08 0.100E-08 0.100E-08 0.100E-08 0.100E-08 0.200E-08 0.901E+01 0.192E-01 0.132E-04 .99675E-24 0.000E+00 0.741E+00 0.000E+00 0.000E+00 0.000E+00
BIGSUB   3        0  357.12200E+00 0.000E+00 0.000E+00 0.544E+01 0.301E+01 0.103E+03 0.124E-02 0.135E-01 0.636E-01 0.955E+01 0.439E-09 0.484E-05 0.593E-06 0.160E-06 0.351E-05 0.399E-06 0.947E+01 0.200E-01 0.156E-04 .37515E-08 0.000E+00 0.780E+00 0.000E+00 0.000E+00 0.000E+00
BIGSUB   4        0  357.11502E+00 0.000E+00 0.000E+00 0.544E+01 0.300E+01 0.960E+02 0.000E+00 0.100E-05 0.461E-01 0.920E+01 0.261E-09 0.121E-08 0.103E-08 0.100E-08 0.100E-08 0.202E-08 0.915E+01 0.194E-01 0.103E-04 .60884E-23 0.000E+00 0.752E+00 0.000E+00 0.000E+00 0.000E+00
BIGSUB   5        0  357.20828E-01 0.000E+00 0.000E+00 0.545E+01 0.298E+01 0.148E+03 0.000E+00 0.100E-05 0.419E+00 0.104E+02 0.384E-08 0.100E-08 0.100E-08 0.100E-08 0.100E-08 0.200E-08 0.997E+01 0.229E-01 0.102E-03 .87340E-24 0.000E+00 0.850E+00 0.000E+00 0.000E+00 0.000E+00
BIGSUB   6        0  357.35910E-02 0.000E+00 0.000E+00 0.545E+01 0.311E+01 0.156E+03 0.000E+00 0.100E-05 0.659E+00 0.955E+01 0.139E-07 0.100E-08 0.100E-08 0.100E-08 0.100E-08 0.200E-08 0.887E+01 0.168E-01 0.148E-03 .12872E-23 0.000E+00 0.781E+00 0.000E+00 0.000E+00 0.000E+00
BIGSUB   7        0  357.76644E-01 0.000E+00 0.000E+00 0.545E+01 0.306E+01 0.110E+03 0.140E-02 0.129E-04 0.190E+00 0.910E+01 0.157E-08 0.100E-08 0.100E-08 0.137E-07 0.325E-08 0.200E-08 0.890E+01 0.193E-01 0.368E-04 .24808E-10 0.000E+00 0.743E+00 0.000E+00 0.000E+00 0.000E+00
BIGSUB   1        0  358.74695E-01 0.000E+00 0.000E+00 0.704E+01 0.286E+01 0.930E+02 0.000E+00 0.100E-05 0.646E-01 0.311E+01 0.107E-08 0.100E-08 0.100E-08 0.100E-08 0.100E-08 0.200E-08 0.304E+01 0.653E-02 0.193E-04 .88009E-23 0.000E+00 0.253E+00 0.000E+00 0.000E+00 0.000E+00
BIGSUB   2        0  358.72232E-01 0.000E+00 0.000E+00 0.704E+01 0.286E+01 0.933E+02 0.000E+00 0.100E-05 0.574E-01 0.316E+01 0.111E-08 0.100E-08 0.100E-08 0.100E-08 0.100E-08 0.200E-08 0.310E+01 0.660E-02 0.144E-04 .83137E-23 0.000E+00 0.257E+00 0.000E+00 0.000E+00 0.000E+00
BIGSUB   3        0  358.12200E+00 0.000E+00 0.000E+00 0.704E+01 0.288E+01 0.100E+03 0.000E+00 0.789E-02 0.674E-01 0.333E+01 0.439E-09 0.200E-06 0.254E-07 0.938E-07 0.206E-05 0.184E-07 0.325E+01 0.686E-02 0.170E-04 .82663E-09 0.000E+00 0.272E+00 0.000E+00 0.000E+00 0.000E+00
BIGSUB   4        0  358.11502E+00 0.000E+00 0.000E+00 0.704E+01 0.286E+01 0.931E+02 0.000E+00 0.100E-05 0.481E-01 0.320E+01 0.261E-09 0.100E-08 0.100E-08 0.100E-08 0.100E-08 0.200E-08 0.315E+01 0.665E-02 0.113E-04 .80345E-23 0.000E+00 0.261E+00 0.000E+00 0.000E+00 0.000E+00
BIGSUB   5        0  358.20828E-01 0.000E+00 0.000E+00 0.705E+01 0.297E+01 0.145E+03 0.000E+00 0.100E-05 0.436E+00 0.391E+01 0.384E-08 0.100E-08 0.100E-08 0.100E-08 0.100E-08 0.200E-08 0.346E+01 0.795E-02 0.111E-03 .60578E-23 0.000E+00 0.319E+00 0.000E+00 0.000E+00 0.000E+00
BIGSUB   6        0  358.35910E-02 0.000E+00 0.000E+00 0.705E+01 0.309E+01 0.153E+03 0.000E+00 0.100E-05 0.686E+00 0.376E+01 0.139E-07 0.100E-08 0.100E-08 0.100E-08 0.100E-08 0.200E-08 0.305E+01 0.576E-02 0.161E-03 .81812E-23 0.000E+00 0.307E+00 0.000E+00 0.000E+00 0.000E+00
BIGSUB   7        0  358.76644E-01 0.000E+00 0.000E+00 0.705E+01 0.294E+01 0.107E+03 0.115E-02 0.100E-05 0.199E+00 0.327E+01 0.157E-08 0.100E-08 0.100E-08 0.100E-08 0.100E-08 0.200E-08 0.306E+01 0.664E-02 0.405E-04 .12577E-17 0.000E+00 0.267E+00 0.000E+00 0.000E+00 0.000E+00
BIGSUB   1        0  359.74695E-01 0.000E+00 0.000E+00 0.683E+01 0.221E+01 0.908E+02 0.000E+00 0.100E-05 0.667E-01 0.112E+01 0.107E-08 0.100E-08 0.100E-08 0.100E-08 0.100E-08 0.200E-08 0.105E+01 0.225E-02 0.205E-04 .72908E-22 0.000E+00 0.918E-01 0.000E+00 0.000E+00 0.000E+00
BIGSUB   2        0  359.72232E-01 0.000E+00 0.000E+00 0.683E+01 0.221E+01 0.911E+02 0.000E+00 0.100E-05 0.595E-01 0.113E+01 0.111E-08 0.100E-08 0.100E-08 0.100E-08 0.100E-08 0.200E-08 0.106E+01 0.227E-02 0.154E-04 .68550E-22 0.000E+00 0.923E-01 0.000E+00 0.000E+00 0.000E+00
BIGSUB   3        0  359.12200E+00 0.000E+00 0.000E+00 0.683E+01 0.223E+01 0.980E+02 0.000E+00 0.475E-02 0.707E-01 0.120E+01 0.439E-09 0.922E-08 0.200E-08 0.568E-07 0.124E-05 0.267E-08 0.112E+01 0.236E-02 0.181E-04 .26629E-09 0.000E+00 0.982E-01 0.000E+00 0.000E+00 0.000E+00
BIGSUB   4        0  359.11502E+00 0.000E+00 0.000E+00 0.683E+01 0.221E+01 0.909E+02 0.000E+00 0.100E-05 0.499E-01 0.113E+01 0.261E-09 0.100E-08 0.100E-08 0.100E-08 0.100E-08 0.200E-08 0.108E+01 0.229E-02 0.121E-04 .67071E-22 0.000E+00 0.930E-01 0.000E+00 0.000E+00 0.000E+00
BIGSUB   5        0  359.20828E-01 0.000E+00 0.000E+00 0.684E+01 0.235E+01 0.143E+03 0.000E+00 0.100E-05 0.451E+00 0.167E+01 0.384E-08 0.100E-08 0.100E-08 0.100E-08 0.100E-08 0.200E-08 0.120E+01 0.277E-02 0.119E-03 .39070E-22 0.000E+00 0.137E+00 0.000E+00 0.000E+00 0.000E+00
BIGSUB   6        0  359.35910E-02 0.000E+00 0.000E+00 0.684E+01 0.245E+01 0.150E+03 0.000E+00 0.100E-05 0.709E+00 0.179E+01 0.139E-07 0.100E-08 0.100E-08 0.100E-08 0.100E-08 0.200E-08 0.105E+01 0.198E-02 0.173E-03 .37740E-22 0.000E+00 0.146E+00 0.000E+00 0.000E+00 0.000E+00
BIGSUB   7        0  359.76644E-01 0.000E+00 0.000E+00 0.684E+01 0.228E+01 0.104E+03 0.808E-03 0.100E-05 0.206E+00 0.127E+01 0.157E-08 0.100E-08 0.100E-08 0.100E-08 0.100E-08 0.200E-08 0.106E+01 0.229E-02 0.436E-04 .12480E-17 0.000E+00 0.104E+00 0.000E+00 0.000E+00 0.000E+00
BIGSUB   1        0  360.74695E-01 0.239E+02 0.000E+00 0.383E+01 0.339E+01 0.971E+02 0.983E-01 0.316E+01 0.686E-01 0.107E+02 0.159E+00 0.175E+00 0.215E-01 0.384E-03 0.131E-03 0.167E-01 0.749E+01 0.251E-02 0.216E-04 .67453E-03 0.141E+02 0.639E+00 0.000E+00 0.000E+00 0.000E+00
BIGSUB   2        0  360.72232E-01 0.239E+02 0.000E+00 0.383E+01 0.339E+01 0.975E+02 0.753E-01 0.299E+01 0.615E-01 0.107E+02 0.222E+00 0.158E+00 0.193E-01 0.320E-03 0.876E-04 0.150E-01 0.763E+01 0.249E-02 0.163E-04 .53845E-03 0.180E+02 0.650E+00 0.000E+00 0.000E+00 0.000E+00
BIGSUB   3        0  360.12200E+00 0.239E+02 0.000E+00 0.384E+01 0.339E+01 0.105E+03 0.605E-01 0.262E+01 0.737E-01 0.105E+02 0.292E+00 0.116E+00 0.143E-01 0.287E-03 0.532E-04 0.112E-01 0.778E+01 0.288E-02 0.192E-04 .37038E-03 0.215E+02 0.665E+00 0.000E+00 0.000E+00 0.000E+00
BIGSUB   4        0  360.11502E+00 0.239E+02 0.000E+00 0.384E+01 0.339E+01 0.973E+02 0.590E-01 0.290E+01 0.515E-01 0.107E+02 0.302E+00 0.136E+00 0.167E-01 0.275E-03 0.509E-04 0.130E-01 0.772E+01 0.244E-02 0.129E-04 .44112E-03 0.227E+02 0.656E+00 0.000E+00 0.000E+00 0.000E+00
BIGSUB   5        0  360.20828E-01 0.239E+02 0.000E+00 0.383E+01 0.329E+01 0.150E+03 0.624E+00 0.158E+01 0.464E+00 0.956E+01 0.191E-01 0.420E-01 0.521E-02 0.165E-02 0.316E-03 0.399E-02 0.750E+01 0.110E-01 0.125E-03 .22335E-03 0.182E+01 0.698E+00 0.000E+00 0.000E+00 0.000E+00
BIGSUB   6        0  360.35910E-02 0.239E+02 0.000E+00 0.383E+01 0.339E+01 0.158E+03 0.764E+00 0.234E+01 0.732E+00 0.956E+01 0.512E-02 0.366E-01 0.455E-02 0.592E-03 0.455E-03 0.345E-02 0.646E+01 0.534E-02 0.183E-03 .37777E-03 0.765E+00 0.625E+00 0.000E+00 0.000E+00 0.000E+00
BIGSUB   7        0  360.76644E-01 0.239E+02 0.000E+00 0.383E+01 0.336E+01 0.111E+03 0.254E+00 0.295E+01 0.213E+00 0.104E+02 0.128E+00 0.130E+00 0.159E-01 0.301E-02 0.285E-03 0.122E-01 0.725E+01 0.451E-02 0.464E-04 .58165E-03 0.111E+02 0.680E+00 0.000E+00 0.000E+00 0.000E+00
BIGSUB   1        0  361.74695E-01 0.460E+01 0.000E+00 0.289E+01 0.279E+01 0.972E+02 0.185E-02 0.100E-05 0.703E-01 0.379E+01 0.107E-08 0.100E-08 0.100E-08 0.100E-08 0.100E-08 0.200E-08 0.371E+01 0.102E-02 0.225E-04 .57167E-23 0.000E+00 0.314E+00 0.000E+00 0.000E+00 0.000E+00
BIGSUB   2        0  361.72232E-01 0.460E+01 0.000E+00 0.289E+01 0.279E+01 0.976E+02 0.000E+00 0.100E-05 0.632E-01 0.383E+01 0.111E-08 0.100E-08 0.100E-08 0.100E-08 0.100E-08 0.200E-08 0.376E+01 0.985E-03 0.170E-04 .55175E-23 0.000E+00 0.317E+00 0.000E+00 0.000E+00 0.000E+00
BIGSUB   3        0  361.12200E+00 0.460E+01 0.000E+00 0.289E+01 0.278E+01 0.105E+03 0.339E-02 0.182E-02 0.764E-01 0.389E+01 0.439E-09 0.101E-08 0.100E-08 0.296E-07 0.477E-06 0.200E-08 0.381E+01 0.116E-02 0.201E-04 .29436E-10 0.000E+00 0.322E+00 0.000E+00 0.000E+00 0.000E+00
BIGSUB   4        0  361.11502E+00 0.460E+01 0.000E+00 0.289E+01 0.279E+01 0.973E+02 0.423E-03 0.100E-05 0.529E-01 0.386E+01 0.261E-09 0.103E-08 0.100E-08 0.100E-08 0.100E-08 0.200E-08 0.380E+01 0.954E-03 0.135E-04 .54532E-23 0.000E+00 0.319E+00 0.000E+00 0.000E+00 0.000E+00
BIGSUB   5        0  361.20828E-01 0.460E+01 0.000E+00 0.289E+01 0.270E+01 0.151E+03 0.118E-01 0.100E-05 0.476E+00 0.405E+01 0.384E-08 0.100E-08 0.100E-08 0.100E-08 0.100E-08 0.200E-08 0.356E+01 0.534E-02 0.131E-03 .51276E-23 0.000E+00 0.336E+00 0.000E+00 0.000E+00 0.000E+00
BIGSUB   6        0  361.35910E-02 0.460E+01 0.000E+00 0.289E+01 0.281E+01 0.159E+03 0.729E-02 0.100E-05 0.751E+00 0.384E+01 0.139E-07 0.100E-08 0.100E-08 0.100E-08 0.100E-08 0.200E-08 0.306E+01 0.217E-02 0.191E-03 .62983E-23 0.000E+00 0.318E+00 0.000E+00 0.000E+00 0.000E+00
BIGSUB   7        0  361.76644E-01 0.460E+01 0.000E+00 0.289E+01 0.276E+01 0.111E+03 0.879E-02 0.475E-01 0.220E+00 0.381E+01 0.157E-08 0.100E-08 0.100E-08 0.398E-03 0.869E-05 0.200E-08 0.354E+01 0.208E-02 0.486E-04 .15881E-04 0.000E+00 0.316E+00 0.000E+00 0.000E+00 0.000E+00
BIGSUB   1        0  362.74695E-01 0.147E+02 0.000E+00 0.389E+01 0.343E+01 0.978E+02 0.221E+00 0.690E+00 0.721E-01 0.846E+01 0.250E-01 0.302E-01 0.371E-02 0.687E-04 0.323E-04 0.288E-02 0.769E+01 0.838E-02 0.235E-04 .13305E-04 0.635E+00 0.635E+00 0.000E+00 0.000E+00 0.000E+00
BIGSUB   2        0  362.72232E-01 0.147E+02 0.000E+00 0.389E+01 0.343E+01 0.981E+02 0.190E+00 0.616E+00 0.650E-01 0.847E+01 0.346E-01 0.260E-01 0.319E-02 0.535E-04 0.196E-04 0.248E-02 0.779E+01 0.826E-02 0.178E-04 .68949E-05 0.771E+00 0.643E+00 0.000E+00 0.000E+00 0.000E+00
BIGSUB   3        0  362.12200E+00 0.147E+02 0.000E+00 0.389E+01 0.343E+01 0.105E+03 0.255E+00 0.519E+00 0.792E-01 0.849E+01 0.454E-01 0.186E-01 0.229E-02 0.392E-04 0.879E-05 0.179E-02 0.788E+01 0.877E-02 0.210E-04 .40059E-05 0.915E+00 0.651E+00 0.000E+00 0.000E+00 0.000E+00
BIGSUB   4        0  362.11502E+00 0.147E+02 0.000E+00 0.389E+01 0.343E+01 0.979E+02 0.145E+00 0.581E+00 0.543E-01 0.848E+01 0.470E-01 0.222E-01 0.272E-02 0.445E-04 0.968E-05 0.213E-02 0.784E+01 0.812E-02 0.141E-04 .47767E-05 0.968E+00 0.645E+00 0.000E+00 0.000E+00 0.000E+00
BIGSUB   5        0  362.20828E-01 0.147E+02 0.000E+00 0.388E+01 0.332E+01 0.150E+03 0.170E+01 0.331E+00 0.489E+00 0.835E+01 0.295E-02 0.655E-02 0.812E-03 0.145E-03 0.564E-04 0.631E-03 0.751E+01 0.172E-01 0.137E-03 .88690E-05 0.103E+00 0.662E+00 0.000E+00 0.000E+00 0.000E+00
BIGSUB   6        0  362.35910E-02 0.147E+02 0.000E+00 0.388E+01 0.342E+01 0.158E+03 0.238E+01 0.705E+00 0.771E+00 0.826E+01 0.502E-03 0.384E-02 0.479E-03 0.121E-03 0.140E-03 0.364E-03 0.675E+01 0.112E-01 0.200E-03 .10344E-04 0.422E-01 0.653E+00 0.000E+00 0.000E+00 0.000E+00
BIGSUB   7        0  362.76644E-01 0.147E+02 0.000E+00 0.388E+01 0.340E+01 0.112E+03 0.709E+00 0.864E+00 0.226E+00 0.850E+01 0.201E-01 0.217E-01 0.266E-02 0.943E-03 0.108E-03 0.205E-02 0.740E+01 0.105E-01 0.511E-04 .37989E-04 0.508E+00 0.654E+00 0.000E+00 0.000E+00 0.000E+00
BIGSUB   1        0  363.74695E-01 0.840E+01 0.000E+00 0.423E+01 0.364E+01 0.977E+02 0.875E-01 0.141E-01 0.737E-01 0.588E+01 0.107E-08 0.100E-08 0.100E-08 0.295E-05 0.169E-05 0.200E-08 0.579E+01 0.569E-02 0.243E-04 .14296E-09 0.000E+00 0.480E+00 0.000E+00 0.000E+00 0.000E+00
BIGSUB   2        0  363.72232E-01 0.840E+01 0.000E+00 0.423E+01 0.364E+01 0.980E+02 0.664E-01 0.433E-02 0.667E-01 0.591E+01 0.111E-08 0.100E-08 0.100E-08 0.915E-06 0.688E-06 0.200E-08 0.583E+01 0.551E-02 0.185E-04 .48827E-10 0.000E+00 0.483E+00 0.000E+00 0.000E+00 0.000E+00
BIGSUB   3        0  363.12200E+00 0.840E+01 0.000E+00 0.423E+01 0.364E+01 0.105E+03 0.796E-01 0.661E-03 0.816E-01 0.595E+01 0.439E-09 0.999E-09 0.999E-09 0.112E-07 0.173E-06 0.200E-08 0.587E+01 0.580E-02 0.217E-04 .16426E-11 0.000E+00 0.486E+00 0.000E+00 0.000E+00 0.000E+00
BIGSUB   4        0  363.11502E+00 0.840E+01 0.000E+00 0.424E+01 0.365E+01 0.978E+02 0.472E-01 0.100E-05 0.557E-01 0.592E+01 0.261E-09 0.100E-08 0.100E-08 0.100E-08 0.100E-08 0.200E-08 0.587E+01 0.537E-02 0.146E-04 .22814E-23 0.000E+00 0.484E+00 0.000E+00 0.000E+00 0.000E+00
BIGSUB   5        0  363.20828E-01 0.840E+01 0.000E+00 0.422E+01 0.352E+01 0.150E+03 0.585E+00 0.217E-01 0.500E+00 0.604E+01 0.384E-08 0.100E-08 0.100E-08 0.473E-05 0.391E-05 0.200E-08 0.550E+01 0.121E-01 0.142E-03 .29998E-09 0.000E+00 0.494E+00 0.000E+00 0.000E+00 0.000E+00
BIGSUB   6        0  363.35910E-02 0.840E+01 0.000E+00 0.422E+01 0.363E+01 0.158E+03 0.849E+00 0.693E-01 0.789E+00 0.588E+01 0.139E-07 0.100E-08 0.100E-08 0.159E-04 0.137E-04 0.200E-08 0.499E+01 0.782E-02 0.208E-03 .98864E-09 0.000E+00 0.480E+00 0.000E+00 0.000E+00 0.000E+00
BIGSUB   7        0  363.76644E-01 0.840E+01 0.000E+00 0.422E+01 0.361E+01 0.112E+03 0.248E+00 0.153E+00 0.232E+00 0.591E+01 0.157E-08 0.113E-03 0.137E-04 0.487E-03 0.277E-04 0.103E-04 0.551E+01 0.724E-02 0.532E-04 .19302E-04 0.173E-08 0.483E+00 0.000E+00 0.000E+00 0.000E+00
BIGSUB   1        0  364.74695E-01 0.300E+00 0.000E+00 0.572E+01 0.317E+01 0.948E+02 0.000E+00 0.100E-05 0.751E-01 0.207E+01 0.107E-08 0.100E-08 0.100E-08 0.100E-08 0.100E-08 0.200E-08 0.199E+01 0.196E-02 0.249E-04 .19188E-22 0.000E+00 0.169E+00 0.000E+00 0.000E+00 0.000E+00
BIGSUB   2        0  364.72232E-01 0.300E+00 0.000E+00 0.572E+01 0.317E+01 0.951E+02 0.000E+00 0.100E-05 0.682E-01 0.208E+01 0.111E-08 0.100E-08 0.100E-08 0.100E-08 0.100E-08 0.200E-08 0.200E+01 0.189E-02 0.190E-04 .18912E-22 0.000E+00 0.170E+00 0.000E+00 0.000E+00 0.000E+00
BIGSUB   3        0  364.12200E+00 0.300E+00 0.000E+00 0.572E+01 0.319E+01 0.102E+03 0.000E+00 0.399E-03 0.838E-01 0.210E+01 0.439E-09 0.999E-09 0.999E-09 0.712E-08 0.105E-06 0.200E-08 0.202E+01 0.199E-02 0.223E-04 .36864E-12 0.000E+00 0.172E+00 0.000E+00 0.000E+00 0.000E+00
BIGSUB   4        0  364.11502E+00 0.300E+00 0.000E+00 0.572E+01 0.318E+01 0.949E+02 0.000E+00 0.100E-05 0.568E-01 0.208E+01 0.261E-09 0.100E-08 0.100E-08 0.100E-08 0.100E-08 0.200E-08 0.202E+01 0.185E-02 0.150E-04 .18869E-22 0.000E+00 0.170E+00 0.000E+00 0.000E+00 0.000E+00
BIGSUB   5        0  364.20828E-01 0.300E+00 0.000E+00 0.570E+01 0.321E+01 0.147E+03 0.000E+00 0.100E-05 0.510E+00 0.244E+01 0.384E-08 0.100E-08 0.100E-08 0.100E-08 0.100E-08 0.200E-08 0.191E+01 0.419E-02 0.146E-03 .14417E-22 0.000E+00 0.199E+00 0.000E+00 0.000E+00 0.000E+00
BIGSUB   6        0  364.35910E-02 0.300E+00 0.000E+00 0.570E+01 0.332E+01 0.155E+03 0.000E+00 0.100E-05 0.805E+00 0.255E+01 0.139E-07 0.100E-08 0.100E-08 0.100E-08 0.100E-08 0.200E-08 0.171E+01 0.269E-02 0.214E-03 .13253E-22 0.000E+00 0.208E+00 0.000E+00 0.000E+00 0.000E+00
BIGSUB   7        0  364.76644E-01 0.300E+00 0.000E+00 0.570E+01 0.324E+01 0.109E+03 0.117E-02 0.205E-05 0.237E+00 0.214E+01 0.157E-08 0.100E-08 0.100E-08 0.676E-08 0.119E-08 0.200E-08 0.190E+01 0.250E-02 0.548E-04 .13080E-12 0.000E+00 0.175E+00 0.000E+00 0.000E+00 0.000E+00
BIGSUB   1        0  365.74695E-01 0.740E+01 0.000E+00 0.349E+01 0.294E+01 0.963E+02 0.000E+00 0.353E-02 0.762E-01 0.272E+01 0.107E-08 0.100E-08 0.100E-08 0.120E-05 0.439E-06 0.200E-08 0.264E+01 0.814E-03 0.253E-04 .22451E-10 0.000E+00 0.226E+00 0.000E+00 0.000E+00 0.000E+00
BIGSUB   2        0  365.72232E-01 0.740E+01 0.000E+00 0.349E+01 0.294E+01 0.966E+02 0.000E+00 0.116E-02 0.695E-01 0.273E+01 0.111E-08 0.100E-08 0.100E-08 0.416E-06 0.191E-06 0.200E-08 0.266E+01 0.776E-03 0.193E-04 .10401E-10 0.000E+00 0.227E+00 0.000E+00 0.000E+00 0.000E+00
BIGSUB   3        0  365.12200E+00 0.740E+01 0.000E+00 0.349E+01 0.294E+01 0.104E+03 0.186E-02 0.241E-03 0.857E-01 0.274E+01 0.439E-09 0.999E-09 0.999E-09 0.469E-08 0.636E-07 0.200E-08 0.265E+01 0.849E-03 0.227E-04 .81452E-13 0.000E+00 0.227E+00 0.000E+00 0.000E+00 0.000E+00
BIGSUB   4        0  365.11502E+00 0.740E+01 0.000E+00 0.349E+01 0.293E+01 0.963E+02 0.000E+00 0.100E-05 0.578E-01 0.274E+01 0.261E-09 0.100E-08 0.100E-08 0.100E-08 0.100E-08 0.200E-08 0.268E+01 0.754E-03 0.153E-04 .10632E-22 0.000E+00 0.228E+00 0.000E+00 0.000E+00 0.000E+00
BIGSUB   5        0  365.20828E-01 0.740E+01 0.000E+00 0.349E+01 0.303E+01 0.149E+03 0.000E+00 0.663E-02 0.519E+00 0.269E+01 0.384E-08 0.100E-08 0.100E-08 0.244E-05 0.123E-05 0.200E-08 0.214E+01 0.270E-02 0.148E-03 .64272E-10 0.000E+00 0.224E+00 0.000E+00 0.000E+00 0.000E+00
BIGSUB   6        0  365.35910E-02 0.740E+01 0.000E+00 0.349E+01 0.316E+01 0.158E+03 0.000E+00 0.213E-01 0.819E+00 0.268E+01 0.139E-07 0.100E-08 0.100E-08 0.830E-05 0.431E-05 0.200E-08 0.181E+01 0.105E-02 0.218E-03 .25457E-09 0.000E+00 0.223E+00 0.000E+00 0.000E+00 0.000E+00
BIGSUB   7        0  365.76644E-01 0.740E+01 0.000E+00 0.349E+01 0.298E+01 0.110E+03 0.178E-02 0.992E-01 0.241E+00 0.275E+01 0.157E-08 0.100E-08 0.100E-08 0.604E-03 0.184E-04 0.200E-08 0.239E+01 0.127E-02 0.560E-04 .24094E-04 0.000E+00 0.228E+00 0.000E+00 0.000E+00 0.000E+00
BIGSUB   1        0  366.74695E-01 0.399E+02 0.000E+00 0.181E+01 0.179E+01 0.999E+02 0.910E+00 0.123E+02 0.779E-01 0.272E+02 0.427E+00 0.513E+00 0.629E-01 0.300E-03 0.485E-03 0.487E-01 0.148E+02 0.242E-01 0.262E-04 .42560E-02 0.645E+02 0.126E+01 0.000E+00 0.000E+00 0.000E+00
BIGSUB   2        0  366.72232E-01 0.399E+02 0.000E+00 0.181E+01 0.179E+01 0.100E+03 0.795E+00 0.120E+02 0.712E-01 0.272E+02 0.599E+00 0.470E+00 0.577E-01 0.265E-03 0.346E-03 0.449E-01 0.151E+02 0.243E-01 0.201E-04 .37517E-02 0.836E+02 0.128E+01 0.000E+00 0.000E+00 0.000E+00
BIGSUB   3        0  366.12200E+00 0.399E+02 0.000E+00 0.181E+01 0.179E+01 0.107E+03 0.950E+00 0.110E+02 0.883E-01 0.268E+02 0.795E+00 0.376E+00 0.462E-01 0.293E-03 0.269E-03 0.361E-01 0.157E+02 0.257E-01 0.236E-04 .27252E-02 0.100E+03 0.134E+01 0.000E+00 0.000E+00 0.000E+00
BIGSUB   4        0  366.11502E+00 0.399E+02 0.000E+00 0.181E+01 0.179E+01 0.100E+03 0.687E+00 0.118E+02 0.591E-01 0.271E+02 0.816E+00 0.411E+00 0.505E-01 0.239E-03 0.221E-03 0.395E-01 0.153E+02 0.244E-01 0.159E-04 .32013E-02 0.106E+03 0.129E+01 0.000E+00 0.000E+00 0.000E+00
BIGSUB   5        0  366.20828E-01 0.399E+02 0.000E+00 0.182E+01 0.172E+01 0.152E+03 0.431E+01 0.782E+01 0.532E+00 0.243E+02 0.637E-01 0.191E+00 0.235E-01 0.209E-02 0.174E-02 0.177E-01 0.160E+02 0.398E-01 0.154E-03 .10923E-02 0.865E+01 0.152E+01 0.000E+00 0.000E+00 0.000E+00
BIGSUB   6        0  366.35910E-02 0.399E+02 0.000E+00 0.182E+01 0.179E+01 0.160E+03 0.568E+01 0.904E+01 0.838E+00 0.242E+02 0.271E-01 0.180E+00 0.222E-01 0.320E-03 0.166E-02 0.164E-01 0.143E+02 0.252E-01 0.227E-03 .11090E-02 0.291E+01 0.134E+01 0.000E+00 0.000E+00 0.000E+00
BIGSUB   7        0  366.76644E-01 0.399E+02 0.000E+00 0.182E+01 0.177E+01 0.114E+03 0.197E+01 0.116E+02 0.247E+00 0.266E+02 0.351E+00 0.412E+00 0.505E-01 0.186E-02 0.104E-02 0.389E-01 0.148E+02 0.272E-01 0.585E-04 .31791E-02 0.512E+02 0.141E+01 0.000E+00 0.000E+00 0.000E+00
