1
    SWAT Dec 23 2016    VER 2016/Rev 664                                                                 0/ 0/   0      0: 0: 0

    General Input/Output section (file.cio):                                        
    2/12/2020 14:37:03 QSWAT Workflow v1.5.2                                        
                                                                                    
         Number of years in run:    5
         Area of watershed:        0.485 km2
1
    SWAT Dec 23 2016    VER 2016/Rev 664                                            

    General Input/Output section (file.cio):                                        
    2/12/2020 14:37:03 QSWAT Workflow v1.5.2                                        
                                                                                    
Annual Summary for Watershed in year    1 of simulation

UNIT                                    PERCO    TILE                           WATER     SED     NO3     NO3     NO3     NO3        N       P       P
TIME     PREC    SURQ    LATQ     GWQ    LATE       Q     SW       ET     PET   YIELD   YIELD    SURQ    LATQ    PERC    CROP  ORGANIC SOLUBLE ORGANIC TILENO3
         (mm)    (mm)    (mm)    (mm)    (mm)    (mm)    (mm)    (mm)    (mm)    (mm)   (t/ha)  ------------------(kg nutrient/ha)-------------------- (kg/ha)
1
    SWAT Dec 23 2016    VER 2016/Rev 664                                            

    General Input/Output section (file.cio):                                        
    2/12/2020 14:37:03 QSWAT Workflow v1.5.2                                        
                                                                                    
Annual Summary for Watershed in year    2 of simulation

UNIT                                    PERCO    TILE                           WATER     SED     NO3     NO3     NO3     NO3        N       P       P
TIME     PREC    SURQ    LATQ     GWQ    LATE       Q     SW       ET     PET   YIELD   YIELD    SURQ    LATQ    PERC    CROP  ORGANIC SOLUBLE ORGANIC TILENO3
         (mm)    (mm)    (mm)    (mm)    (mm)    (mm)    (mm)    (mm)    (mm)    (mm)   (t/ha)  ------------------(kg nutrient/ha)-------------------- (kg/ha)
1
    SWAT Dec 23 2016    VER 2016/Rev 664                                            

    General Input/Output section (file.cio):                                        
    2/12/2020 14:37:03 QSWAT Workflow v1.5.2                                        
                                                                                    
Annual Summary for Watershed in year    3 of simulation

UNIT                                    PERCO    TILE                           WATER     SED     NO3     NO3     NO3     NO3        N       P       P
TIME     PREC    SURQ    LATQ     GWQ    LATE       Q     SW       ET     PET   YIELD   YIELD    SURQ    LATQ    PERC    CROP  ORGANIC SOLUBLE ORGANIC TILENO3
         (mm)    (mm)    (mm)    (mm)    (mm)    (mm)    (mm)    (mm)    (mm)    (mm)   (t/ha)  ------------------(kg nutrient/ha)-------------------- (kg/ha)
1
    SWAT Dec 23 2016    VER 2016/Rev 664                                            

    General Input/Output section (file.cio):                                        
    2/12/2020 14:37:03 QSWAT Workflow v1.5.2                                        
                                                                                    
Annual Summary for Watershed in year    4 of simulation

UNIT                                    PERCO    TILE                           WATER     SED     NO3     NO3     NO3     NO3        N       P       P
TIME     PREC    SURQ    LATQ     GWQ    LATE       Q     SW       ET     PET   YIELD   YIELD    SURQ    LATQ    PERC    CROP  ORGANIC SOLUBLE ORGANIC TILENO3
         (mm)    (mm)    (mm)    (mm)    (mm)    (mm)    (mm)    (mm)    (mm)    (mm)   (t/ha)  ------------------(kg nutrient/ha)-------------------- (kg/ha)
    1   26.90    3.90   10.50    0.15    0.15    0.00  102.48    2.29    2.33   14.56    0.45    0.00    0.01    0.00    0.00     0.75    0.00    0.09    0.00
    2    1.00    0.00    3.61    0.15    0.00    0.00  100.42    3.06    3.90    3.77    0.00    0.00    0.00    0.00    0.00     0.00    0.00    0.00    0.00
    3   15.50    0.65    7.45    0.15    0.28    0.00  101.62    3.91    4.71    8.26    0.07    0.00    0.01    0.01    0.00     0.11    0.00    0.01    0.00
    4    6.40    0.01    4.38    0.15    0.02    0.00  100.69    4.52    5.74    4.55    0.00    0.00    0.00    0.00    0.00     0.00    0.00    0.00    0.00
    5   25.70    3.77   11.73    0.15    0.62    0.00  101.89    4.54    5.74   15.65    0.80    0.00    0.02    0.02    0.00     1.13    0.00    0.14    0.00
    6    1.30    0.00    4.11    0.15    0.00    0.00   99.46    3.61    5.77    4.27    0.00    0.00    0.01    0.00    0.00     0.00    0.00    0.00    0.00
    7    0.00    0.00    1.41    0.15    0.00    0.00   97.18    2.28    5.75    1.57    0.00    0.00    0.00    0.00    0.00     0.00    0.00    0.00    0.00
    8    0.00    0.00    0.49    0.15    0.00    0.00   95.29    1.89    5.97    0.64    0.00    0.00    0.00    0.00    0.00     0.00    0.00    0.00    0.00
    9   70.90   31.13   17.73    0.15    1.02    0.00  103.63    3.66    4.27   49.00    4.91    0.00    0.03    0.03    0.00     7.52    0.00    0.92    0.00
   10   49.80   17.97   22.73    0.15    1.49    0.00  105.03    3.58    4.13   40.86    0.00    0.00    0.05    0.06    0.00     5.37    0.00    0.66    0.00
   11   53.10   20.62   25.48    0.15    1.98    0.00  106.47    2.14    2.17   46.25    4.36    0.00    0.07    0.11    0.00     4.94    0.00    0.60    0.00
   12   38.90   11.41   24.19    0.16    1.82    0.00  106.77    1.85    1.88   35.77    0.00    0.00    0.07    0.10    0.00     2.02    0.00    0.25    0.00
   13   15.00    0.77   15.90    0.16    0.82    0.00  106.75    1.88    1.90   16.84    0.04    0.00    0.05    0.05    0.00     0.05    0.00    0.01    0.00
   14   23.40    3.39   16.54    0.17    1.26    0.00  106.56    2.08    2.10   20.10    0.28    0.00    0.05    0.07    0.00     0.37    0.00    0.04    0.00
   15   17.50    1.37   14.29    0.17    0.94    0.00  106.23    2.41    2.44   15.84    0.00    0.00    0.04    0.05    0.00     0.24    0.00    0.03    0.00
   16    8.40    0.03    8.60    0.18    0.33    0.00  105.93    2.72    2.75    8.82    0.00    0.00    0.02    0.02    0.00     0.00    0.00    0.00    0.00
   17   32.30    7.52   16.46    0.18    1.49    0.00  105.80    2.85    2.94   24.17    0.70    0.00    0.04    0.08    0.00     0.81    0.00    0.10    0.00
   18    2.50    0.00    6.11    0.19    0.00    0.00  105.15    2.46    2.53    6.30    0.00    0.00    0.01    0.00    0.00     0.00    0.00    0.00    0.00
   19   10.70    0.11    6.57    0.19    0.28    0.00  106.46    2.19    2.22    6.88    0.01    0.00    0.01    0.01    0.00     0.01    0.00    0.00    0.00
   20    8.60    0.04    6.19    0.19    0.38    0.00  104.80    3.86    4.57    6.43    0.00    0.00    0.01    0.02    0.00     0.00    0.00    0.00    0.00
   21    1.80    0.00    2.36    0.20    0.00    0.00  103.00    3.24    4.44    2.57    0.00    0.00    0.00    0.00    0.00     0.00    0.00    0.00    0.00
   22    8.10    0.03    3.04    0.20    0.01    0.00  103.96    3.71    4.37    3.28    0.00    0.00    0.00    0.00    0.00     0.00    0.00    0.00    0.00
   23    0.00    0.00    1.05    0.20    0.00    0.00  101.77    2.19    4.18    1.26    0.00    0.00    0.00    0.00    0.00     0.00    0.00    0.00    0.00
   24    0.00    0.00    0.36    0.21    0.00    0.00   99.83    1.94    4.75    0.57    0.00    0.00    0.00    0.00    0.00     0.00    0.00    0.00    0.00
   25    6.60    0.02    1.75    0.21    0.00    0.00  100.38    3.55    5.38    1.99    0.00    0.00    0.00    0.00    0.00     0.00    0.00    0.00    0.00
   26    0.00    0.00    0.60    0.21    0.00    0.00   98.29    2.09    4.99    0.82    0.00    0.00    0.00    0.00    0.00     0.00    0.00    0.00    0.00
   27    8.40    0.03    2.40    0.21    0.00    0.00   99.81    3.51    5.01    2.65    0.00    0.00    0.00    0.00    0.00     0.00    0.00    0.00    0.00
   28   28.20    4.78   10.89    0.21    0.41    0.00  103.69    3.80    4.49   15.89    0.60    0.00    0.01    0.01    0.00     0.63    0.00    0.08    0.00
   29   70.90   33.74   23.61    0.21    1.99    0.00  105.53    3.04    3.25   57.57    3.31    0.00    0.05    0.09    0.00     4.27    0.00    0.52    0.00
   30    6.60    0.02   10.39    0.21    0.08    0.00  107.01    1.56    1.58   10.63    0.00    0.00    0.02    0.00    0.00     0.00    0.00    0.00    0.00
   31   38.10   11.01   19.10    0.22    1.85    0.00  107.48    1.11    1.12   30.34    1.69    0.00    0.05    0.10    0.00     1.52    0.00    0.19    0.00
    1  576.60  152.31  300.02    5.51   17.20    0.00  107.48   87.51  117.36  458.10   17.21    0.01    0.64    0.81    0.00    29.73    0.01    3.63    0.00
   32    2.50    0.00    7.43    0.22    0.07    0.00  105.60    2.99    3.15    7.67    0.00    0.00    0.02    0.00    0.00     0.00    0.00    0.00    0.00
   33    5.80    0.01    4.40    0.22    0.06    0.00  107.69    0.83    0.84    4.65    0.00    0.00    0.01    0.00    0.00     0.00    0.00    0.00    0.00
   34    8.90    0.04    6.40    0.22    0.51    0.00  105.15    3.44    3.89    6.67    0.00    0.00    0.02    0.03    0.00     0.00    0.00    0.00    0.00
   35   24.10    3.54   12.75    0.23    1.04    0.00  105.33    3.27    3.61   16.53    0.72    0.00    0.03    0.05    0.00     0.56    0.00    0.07    0.00
   36   21.30    2.49   13.97    0.23    0.93    0.00  106.17    2.42    2.45   16.70    0.00    0.00    0.03    0.05    0.00     0.28    0.00    0.03    0.00
   37    3.30    0.01    5.51    0.23    0.01    0.00  106.61    1.77    1.79    5.76    0.00    0.00    0.01    0.00    0.00     0.00    0.00    0.00    0.00
   38    7.90    0.03    5.53    0.23    0.35    0.00  104.79    3.81    4.19    5.80    0.00    0.00    0.01    0.02    0.01     0.00    0.00    0.00    0.00
   39   70.60   33.84   22.01    0.24    2.31    0.00  106.13    2.47    2.47   56.09    3.34    0.00    0.04    0.11    0.22     3.22    0.00    0.39    0.00
   40    0.30    0.00    7.57    0.24    0.00    0.00  103.95    2.48    3.56    7.82    0.00    0.00    0.01    0.00    0.33     0.00    0.00    0.00    0.00
   41    0.00    0.00    2.60    0.24    0.00    0.00  102.49    1.46    2.40    2.86    0.00    0.00    0.01    0.00    0.21     0.00    0.00    0.00    0.00
   42    0.00    0.00    0.90    0.24    0.00    0.00  100.88    1.62    2.92    1.15    0.00    0.00    0.00    0.00    0.29     0.00    0.00    0.00    0.00
   43    0.00    0.00    0.31    0.25    0.00    0.00   98.60    2.28    5.21    0.57    0.00    0.00    0.00    0.00    0.28     0.00    0.00    0.00    0.00
   44    0.00    0.00    0.11    0.25    0.00    0.00   96.42    2.18    4.78    0.36    0.00    0.00    0.00    0.00    0.52     0.00    0.00    0.00    0.00
   45    0.00    0.00    0.04    0.25    0.00    0.00   94.35    2.07    4.35    0.30    0.00    0.00    0.00    0.00    0.51     0.00    0.00    0.00    0.00
   46    0.00    0.00    0.01    0.25    0.00    0.00   92.44    1.92    3.94    0.27    0.00    0.00    0.00    0.00    0.41     0.00    0.00    0.00    0.00
   47    0.00    0.00    0.00    0.25    0.00    0.00   89.89    2.55    4.89    0.26    0.00    0.00    0.00    0.00    0.52     0.00    0.00    0.00    0.00
   48    0.00    0.00    0.00    0.25    0.00    0.00   88.19    1.70    2.55    0.26    0.00    0.00    0.00    0.00    0.35     0.00    0.00    0.00    0.00
   49    0.00    0.00    0.00    0.24    0.00    0.00   85.86    2.33    3.55    0.26    0.00    0.00    0.00    0.00    0.52     0.00    0.00    0.00    0.00
   50    0.00    0.00    0.00    0.24    0.00    0.00   83.61    2.25    3.75    0.26    0.00    0.00    0.00    0.00    0.29     0.00    0.00    0.00    0.00
   51    0.00    0.00    0.00    0.24    0.00    0.00   81.46    2.16    3.90    0.25    0.00    0.00    0.00    0.00    0.37     0.00    0.00    0.00    0.00
   52    0.00    0.00    0.00    0.24    0.00    0.00   78.66    2.80    4.82    0.25    0.00    0.00    0.00    0.00    0.44     0.00    0.00    0.00    0.00
   53    0.00    0.00    0.00    0.24    0.00    0.00   76.02    2.64    4.38    0.25    0.00    0.00    0.00    0.00    0.45     0.00    0.00    0.00    0.00
   54    0.00    0.00    0.00    0.24    0.00    0.00   73.15    2.87    4.90    0.25    0.00    0.00    0.00    0.00    0.42     0.00    0.00    0.00    0.00
   55    0.00    0.00    0.00    0.23    0.00    0.00   70.49    2.66    4.11    0.25    0.00    0.00    0.00    0.00    0.43     0.00    0.00    0.00    0.00
   56    0.00    0.00    0.00    0.23    0.00    0.00   67.48    3.01    5.15    0.24    0.00    0.00    0.00    0.00    0.33     0.00    0.00    0.00    0.00
   57    0.00    0.00    0.00    0.23    0.00    0.00   64.38    3.10    5.20    0.24    0.00    0.00    0.00    0.00    0.34     0.00    0.00    0.00    0.00
   58    0.00    0.00    0.00    0.23    0.00    0.00   61.70    2.68    4.79    0.24    0.00    0.00    0.00    0.00    0.22     0.00    0.00    0.00    0.00
   59    0.00    0.00    0.00    0.22    0.00    0.00   58.95    2.75    5.27    0.23    0.00    0.00    0.00    0.00    0.15     0.00    0.00    0.00    0.00
    2  144.70   39.97   89.52    6.61    5.27    0.00   58.95   68.47  106.82  136.42    4.06    0.00    0.19    0.25    7.61     4.06    0.00    0.50    0.00
   60    0.00    0.00    0.00    0.22    0.00    0.00   56.23    2.73    4.20    0.23    0.00    0.00    0.00    0.00    0.16     0.00    0.00    0.00    0.00
   61    0.00    0.00    0.00    0.22    0.00    0.00   53.65    2.58    3.85    0.23    0.00    0.00    0.00    0.00    0.04     0.00    0.00    0.00    0.00
   62    0.00    0.00    0.00    0.21    0.00    0.00   50.80    2.85    4.36    0.23    0.00    0.00    0.00    0.00    0.03     0.00    0.00    0.00    0.00
   63    0.00    0.00    0.00    0.21    0.00    0.00   48.33    2.47    3.41    0.22    0.00    0.00    0.00    0.00    0.07     0.00    0.00    0.00    0.00
   64    0.00    0.00    0.00    0.21    0.00    0.00   46.05    2.28    5.16    0.22    0.00    0.00    0.00    0.00    0.03     0.00    0.00    0.00    0.00
   65    0.00    0.00    0.00    0.20    0.00    0.00   44.65    1.40    3.46    0.22    0.00    0.00    0.00    0.00    0.14     0.00    0.00    0.00    0.00
   66    0.00    0.00    0.00    0.20    0.00    0.00   43.50    1.14    1.86    0.21    0.00    0.00    0.00    0.00    0.03     0.00    0.00    0.00    0.00
   67    0.00    0.00    0.00    0.20    0.00    0.00   42.67    0.84    1.12    0.21    0.00    0.00    0.00    0.00    0.01     0.00    0.00    0.00    0.00
   68    0.00    0.00    0.00    0.19    0.00    0.00   40.64    2.03    3.03    0.20    0.00    0.00    0.00    0.00    0.01     0.00    0.00    0.00    0.00
   69    0.00    0.00    0.00    0.19    0.00    0.00   38.19    2.44    4.38    0.20    0.00    0.00    0.00    0.00    0.02     0.00    0.00    0.00    0.00
   70    5.60    0.00    1.32    0.19    0.00    0.00   38.63    3.16    4.12    1.52    0.00    0.00    0.02    0.00    0.02     0.00    0.00    0.00    0.00
   71    0.00    0.00    0.45    0.18    0.00    0.00   35.95    2.68    4.32    0.65    0.00    0.00    0.01    0.00    0.14     0.00    0.00    0.00    0.00
   72    1.80    0.00    0.33    0.18    0.00    0.00   34.20    3.29    3.99    0.52    0.00    0.00    0.01    0.00    0.12     0.00    0.00    0.00    0.00
   73    0.00    0.00    0.11    0.18    0.00    0.00   31.82    2.38    3.77    0.30    0.00    0.00    0.00    0.00    0.12     0.00    0.00    0.00    0.00
   74    2.80    0.00    0.54    0.17    0.00    0.00   30.46    3.40    4.46    0.72    0.00    0.00    0.01    0.00    0.14     0.00    0.00    0.00    0.00
   75   14.20    0.01    4.19    0.17    0.00    0.00   34.63    3.92    4.56    4.38    0.00    0.00    0.01    0.00    0.23     0.00    0.00    0.00    0.00
   76    0.50    0.00    1.44    0.16    0.00    0.00   31.82    3.31    4.95    1.62    0.00    0.00    0.00    0.00    0.31     0.00    0.00    0.00    0.00
   77    0.00    0.00    0.50    0.16    0.00    0.00   29.25    2.57    3.51    0.67    0.00    0.00    0.00    0.00    0.30     0.00    0.00    0.00    0.00
   78    5.60    0.00    1.50    0.16    0.00    0.00   28.99    3.84    5.05    1.67    0.00    0.00    0.00    0.00    0.28     0.00    0.00    0.00    0.00
   79    6.40    0.00    2.13    0.14    0.00    0.00   29.81    3.12    3.72    2.29    0.00    0.00    0.00    0.00    0.29     0.00    0.00    0.00    0.00
   80   17.80    0.06    5.87    0.14    0.00    0.00   36.66    3.05    3.33    6.09    0.00    0.00    0.00    0.00    0.18     0.00    0.00    0.00    0.00
   81    2.00    0.00    2.34    0.13    0.00    0.00   34.44    3.73    4.37    2.49    0.00    0.00    0.00    0.00    0.24     0.00    0.00    0.00    0.00
   82   17.30    0.07    6.29    0.13    0.00    0.00   40.65    2.66    2.83    6.50    0.00    0.01    0.00    0.00    0.26     0.00    0.00    0.00    0.00
   83    0.00    0.00    2.16    0.13    0.00    0.00   38.51    2.14    2.72    2.30    0.00    0.00    0.00    0.00    0.17     0.00    0.00    0.00    0.00
   84    3.30    0.00    1.46    0.12    0.00    0.00   37.68    3.04    3.40    1.59    0.00    0.00    0.00    0.00    0.16     0.00    0.00    0.00    0.00
   85   11.70    0.03    4.35    0.11    0.00    0.00   39.04    4.45    4.72    4.51    0.00    0.00    0.00    0.00    0.18     0.00    0.00    0.00    0.00
   86    3.00    0.00    2.04    0.09    0.00    0.00   38.73    2.47    2.77    2.15    0.00    0.00    0.00    0.00    0.21     0.00    0.00    0.00    0.00
   87    1.00    0.00    0.75    0.09    0.00    0.00   36.69    2.96    3.44    0.85    0.00    0.00    0.00    0.00    0.10     0.00    0.00    0.00    0.00
   88    0.80    0.00    0.26    0.08    0.00    0.00   34.95    2.54    3.19    0.35    0.00    0.00    0.00    0.00    0.12     0.00    0.00    0.00    0.00
   89    0.00    0.00    0.09    0.07    0.00    0.00   32.81    2.14    2.99    0.17    0.00    0.00    0.00    0.00    0.11     0.00    0.00    0.00    0.00
   90    0.00    0.00    0.03    0.06    0.00    0.00   30.05    2.76    4.38    0.10    0.00    0.00    0.00    0.00    0.09     0.00    0.00    0.00    0.00
    3   93.80    0.18   38.16    4.89    0.00    0.00   30.05   84.35  115.41   43.59    0.00    0.02    0.07    0.00    4.29     0.00    0.00    0.00    0.00
   91    0.30    0.00    0.01    0.05    0.00    0.00   27.38    2.97    4.74    0.07    0.00    0.00    0.00    0.00    0.17     0.00    0.00    0.00    0.00
   92    0.30    0.00    0.00    0.05    0.00    0.00   26.15    1.53    3.41    0.07    0.00    0.00    0.00    0.00    0.17     0.00    0.00    0.00    0.00
   93    0.30    0.00    0.00    0.05    0.00    0.00   24.89    1.56    4.71    0.06    0.00    0.00    0.00    0.00    0.05     0.00    0.00    0.00    0.00
   94    2.50    0.00    0.42    0.05    0.00    0.00   24.51    2.25    4.20    0.47    0.00    0.00    0.00    0.00    0.07     0.00    0.00    0.00    0.00
   95    2.30    0.00    0.50    0.04    0.00    0.00   23.81    2.45    4.56    0.55    0.00    0.00    0.00    0.00    0.06     0.00    0.00    0.00    0.00
   96    4.30    0.00    1.12    0.03    0.00    0.00   23.45    3.22    5.22    1.16    0.00    0.00    0.00    0.00    0.07     0.00    0.00    0.00    0.00
   97    0.00    0.00    0.38    0.03    0.00    0.00   22.03    1.42    5.58    0.43    0.00    0.00    0.00    0.00    0.12     0.00    0.00    0.00    0.00
   98    0.00    0.00    0.13    0.03    0.00    0.00   20.95    1.08    4.32    0.17    0.00    0.00    0.00    0.00    0.04     0.00    0.00    0.00    0.00
   99    1.80    0.00    0.20    0.03    0.00    0.00   20.68    1.84    4.03    0.24    0.00    0.00    0.00    0.00    0.03     0.00    0.00    0.00    0.00
  100    0.00    0.00    0.07    0.03    0.00    0.00   19.63    1.06    4.44    0.11    0.00    0.00    0.00    0.00    0.04     0.00    0.00    0.00    0.00
  101   11.90    0.00    3.32    0.03    0.00    0.00   22.73    3.78    4.99    3.36    0.00    0.00    0.00    0.00    0.04     0.00    0.00    0.00    0.00
  102    1.80    0.00    1.34    0.03    0.00    0.00   21.43    2.79    3.71    1.38    0.00    0.00    0.00    0.00    0.13     0.00    0.00    0.00    0.00
  103    1.30    0.00    0.56    0.03    0.00    0.00   20.75    1.82    3.23    0.60    0.00    0.00    0.00    0.00    0.00     0.00    0.00    0.00    0.00
  104    2.80    0.00    0.81    0.03    0.00    0.00   20.88    1.73    2.73    0.85    0.00    0.00    0.00    0.00    0.00     0.00    0.00    0.00    0.00
  105    2.30    0.00    0.76    0.03    0.00    0.00   20.33    2.13    3.39    0.80    0.00    0.00    0.00    0.00    0.00     0.00    0.00    0.00    0.00
  106    0.00    0.00    0.26    0.03    0.00    0.00   19.84    0.49    1.46    0.30    0.00    0.00    0.00    0.00    0.00     0.00    0.00    0.00    0.00
  107    0.00    0.00    0.09    0.03    0.00    0.00   19.20    0.63    2.90    0.13    0.00    0.00    0.00    0.00    0.00     0.00    0.00    0.00    0.00
  108    0.00    0.00    0.03    0.03    0.00    0.00   18.87    0.33    1.18    0.07    0.00    0.00    0.00    0.00    0.00     0.00    0.00    0.00    0.00
  109    0.00    0.00    0.01    0.03    0.00    0.00   18.33    0.54    2.08    0.05    0.00    0.00    0.00    0.00    0.00     0.00    0.00    0.00    0.00
  110    0.30    0.00    0.00    0.03    0.00    0.00   18.05    0.58    2.25    0.04    0.00    0.00    0.00    0.00    0.00     0.00    0.00    0.00    0.00
  111    1.00    0.00    0.00    0.02    0.00    0.00   17.33    1.72    4.16    0.03    0.00    0.00    0.00    0.00    0.00     0.00    0.00    0.00    0.00
  112    1.30    0.00    0.06    0.02    0.00    0.00   17.06    1.48    3.44    0.08    0.00    0.00    0.00    0.00    0.00     0.00    0.00    0.00    0.00
  113   98.00   14.27   34.23    0.02    0.00    0.00   45.37    3.24    3.28   48.53    0.01    0.00    0.01    0.00    0.00     0.02    0.00    0.00    0.00
  114    0.80    0.00   11.77    0.02    0.00    0.00   44.48    1.69    1.88   11.80    0.00    0.00    0.00    0.00    0.00     0.00    0.00    0.00    0.00
  115    0.00    0.00    4.04    0.01    0.00    0.00   40.83    3.65    5.04    4.07    0.00    0.00    0.00    0.00    0.00     0.00    0.00    0.00    0.00
  116    0.50    0.00    1.39    0.01    0.00    0.00   38.19    3.14    4.80    1.41    0.00    0.00    0.00    0.00    0.00     0.00    0.00    0.00    0.00
  117    7.10    0.02    2.31    0.01    0.00    0.00   38.58    3.89    5.04    2.35    0.00    0.00    0.00    0.00    0.00     0.00    0.00    0.00    0.00
  118   24.90    0.17    9.83    0.01    0.01    0.00   46.66    2.86    4.24   10.02    0.00    0.00    0.00    0.00    0.00     0.00    0.00    0.00    0.00
  119    3.80    0.01    4.24    0.01    0.00    0.00   46.15    2.99    4.00    4.26    0.00    0.00    0.00    0.00    0.00     0.00    0.00    0.00    0.00
  120   69.30   13.79   28.59    0.01    0.03    0.00   57.44    2.84    3.39   42.39    0.01    0.00    0.02    0.00    0.00     0.01    0.00    0.00    0.00
    4  238.90   28.27  106.49    0.82    0.05    0.00   57.44   61.70  112.39  135.86    0.02    0.00    0.04    0.00    1.01     0.03    0.00    0.00    0.00
  121    4.60    0.01   11.03    0.01    0.00    0.00   57.63    2.56    2.88   11.07    0.00    0.00    0.01    0.00    0.00     0.00    0.00    0.00    0.00
  122    4.60    0.01    5.08    0.01    0.00    0.00   57.57    2.69    3.12    5.11    0.00    0.00    0.00    0.00    0.00     0.00    0.00    0.00    0.00
  123    4.60    0.01    2.99    0.01    0.00    0.00   57.39    2.86    3.42    3.03    0.00    0.00    0.00    0.00    0.00     0.00    0.00    0.00    0.00
  124    0.00    0.00    1.03    0.01    0.00    0.00   55.41    1.98    3.91    1.05    0.00    0.00    0.00    0.00    0.00     0.00    0.00    0.00    0.00
  125    0.00    0.00    0.35    0.00    0.00    0.00   53.44    1.97    4.99    0.37    0.00    0.00    0.00    0.00    0.00     0.00    0.00    0.00    0.00
  126    1.00    0.00    0.12    0.00    0.00    0.00   51.62    2.83    6.20    0.13    0.00    0.00    0.00    0.00    0.00     0.00    0.00    0.00    0.00
  127    2.00    0.00    0.32    0.00    0.00    0.00   50.58    2.61    5.43    0.33    0.00    0.00    0.00    0.00    0.00     0.00    0.00    0.00    0.00
  128    1.00    0.00    0.11    0.00    0.00    0.00   49.52    2.06    4.08    0.12    0.00    0.00    0.00    0.00    0.00     0.00    0.00    0.00    0.00
  129    0.00    0.00    0.04    0.00    0.00    0.00   48.11    1.41    4.94    0.05    0.00    0.00    0.00    0.00    0.00     0.00    0.00    0.00    0.00
  130    9.70    0.03    2.60    0.00    0.00    0.00   50.96    2.86    5.23    2.65    0.00    0.00    0.00    0.00    0.00     0.00    0.00    0.00    0.00
  131   33.50    1.53   14.85    0.00    0.02    0.00   59.75    1.90    2.08   16.39    0.00    0.00    0.02    0.00    0.00     0.00    0.00    0.00    0.00
  132    7.90    0.02    8.47    0.00    0.01    0.00   59.95    2.54    2.81    8.51    0.00    0.00    0.01    0.00    0.00     0.00    0.00    0.00    0.00
  133    1.80    0.00    3.15    0.00    0.00    0.00   58.73    2.66    3.35    3.16    0.00    0.00    0.00    0.00    0.00     0.00    0.00    0.00    0.00
  134    5.60    0.01    2.54    0.00    0.00    0.00   58.85    3.24    4.08    2.57    0.00    0.00    0.00    0.00    0.00     0.00    0.00    0.00    0.00
  135    0.50    0.00    0.87    0.00    0.00    0.00   56.89    2.46    4.28    0.89    0.00    0.00    0.00    0.00    0.00     0.00    0.00    0.00    0.00
  136    1.80    0.00    0.50    0.00    0.00    0.00   55.63    2.76    4.55    0.52    0.00    0.00    0.00    0.00    0.00     0.00    0.00    0.00    0.00
  137    0.00    0.00    0.17    0.00    0.00    0.00   53.94    1.68    4.55    0.18    0.00    0.00    0.00    0.00    0.00     0.00    0.00    0.00    0.00
  138    6.90    0.02    1.79    0.00    0.00    0.00   55.15    3.04    5.00    1.82    0.00    0.00    0.00    0.00    0.00     0.00    0.00    0.00    0.00
  139   11.90    0.04    4.45    0.00    0.00    0.00   58.01    3.15    3.93    4.50    0.00    0.00    0.00    0.00    0.00     0.00    0.00    0.00    0.00
  140    0.50    0.00    1.53    0.00    0.00    0.00   55.95    2.56    4.54    1.54    0.00    0.00    0.00    0.00    0.00     0.00    0.00    0.00    0.00
  141    0.00    0.00    0.53    0.00    0.00    0.00   53.94    2.00    5.22    0.53    0.00    0.00    0.00    0.00    0.00     0.00    0.00    0.00    0.00
  142    0.00    0.00    0.18    0.00    0.00    0.00   52.51    1.43    4.56    0.19    0.00    0.00    0.00    0.00    0.00     0.00    0.00    0.00    0.00
  143    5.60    0.00    1.38    0.00    0.00    0.00   53.58    2.51    4.28    1.39    0.00    0.00    0.00    0.00    0.00     0.00    0.00    0.00    0.00
  144    4.60    0.00    1.57    0.00    0.00    0.00   53.80    2.72    4.57    1.58    0.00    0.00    0.00    0.00    0.00     0.00    0.00    0.00    0.00
  145    0.00    0.00    0.54    0.00    0.00    0.00   51.90    1.89    5.39    0.55    0.00    0.00    0.00    0.00    0.00     0.00    0.00    0.00    0.00
  146    6.10    0.00    1.67    0.00    0.00    0.00   52.93    2.81    4.89    1.68    0.00    0.00    0.00    0.00    0.00     0.00    0.00    0.00    0.00
  147    1.30    0.00    0.65    0.00    0.00    0.00   51.77    2.34    4.25    0.66    0.00    0.00    0.00    0.00    0.00     0.00    0.00    0.00    0.00
  148    4.10    0.00    1.16    0.00    0.00    0.00   51.91    2.53    4.57    1.17    0.00    0.00    0.00    0.00    0.00     0.00    0.00    0.00    0.00
  149    0.80    0.00    0.40    0.00    0.00    0.00   50.43    2.28    5.15    0.41    0.00    0.00    0.00    0.00    0.00     0.00    0.00    0.00    0.00
  150   13.50    0.01    4.07    0.00    0.00    0.00   54.76    3.16    4.15    4.09    0.00    0.00    0.00    0.00    0.00     0.00    0.00    0.00    0.00
  151    0.80    0.00    1.40    0.00    0.00    0.00   53.43    2.13    3.19    1.41    0.00    0.00    0.00    0.00    0.00     0.00    0.00    0.00    0.00
    5  134.70    1.72   75.57    0.10    0.04    0.00   53.43   75.62  133.60   77.64    0.00    0.00    0.08    0.00    0.03     0.00    0.00    0.00    0.00
  152    1.80    0.00    0.70    0.00    0.00    0.00   52.57    2.32    3.46    0.71    0.00    0.00    0.00    0.00    0.00     0.00    0.00    0.00    0.00
  153    1.80    0.00    0.48    0.00    0.00    0.00   51.83    2.19    3.39    0.48    0.00    0.00    0.00    0.00    0.00     0.00    0.00    0.00    0.00
  154    0.00    0.00    0.16    0.00    0.00    0.00   50.32    1.51    4.37    0.17    0.00    0.00    0.00    0.00    0.00     0.00    0.00    0.00    0.00
  155    9.40    0.00    2.56    0.00    0.00    0.00   53.10    2.80    4.00    2.57    0.00    0.00    0.00    0.00    0.00     0.00    0.00    0.00    0.00
  156  174.20   92.09   42.95    0.00    0.11    0.00   68.49    2.51    2.78  135.03    0.28    0.01    0.12    0.00    0.00     0.38    0.01    0.05    0.00
  157    0.30    0.00   14.76    0.00    0.00    0.00   67.38    1.40    2.45   14.78    0.00    0.00    0.04    0.00    0.00     0.00    0.00    0.00    0.00
  158    1.80    0.00    5.32    0.00    0.00    0.00   67.21    1.60    1.81    5.33    0.00    0.00    0.01    0.00    0.00     0.00    0.00    0.00    0.00
  159    0.30    0.00    1.83    0.00    0.00    0.00   65.92    1.59    2.80    1.84    0.00    0.00    0.00    0.00    0.00     0.00    0.00    0.00    0.00
  160   11.70    0.04    4.78    0.00    0.02    0.00   68.70    2.52    2.79    4.83    0.00    0.00    0.01    0.00    0.00     0.00    0.00    0.00    0.00
  161    5.30    0.01    3.34    0.00    0.01    0.00   68.89    2.50    2.75    3.36    0.00    0.00    0.00    0.00    0.00     0.00    0.00    0.00    0.00
  162    0.30    0.00    1.15    0.00    0.00    0.00   67.87    1.31    2.27    1.16    0.00    0.00    0.00    0.00    0.00     0.00    0.00    0.00    0.00
  163    0.80    0.00    0.40    0.00    0.00    0.00   66.67    2.00    2.73    0.41    0.00    0.00    0.00    0.00    0.00     0.00    0.00    0.00    0.00
  164   10.70    0.03    3.87    0.00    0.03    0.00   69.17    2.45    2.66    3.91    0.00    0.00    0.01    0.00    0.00     0.00    0.00    0.00    0.00
  165    0.80    0.00    1.33    0.00    0.00    0.00   67.46    2.50    3.64    1.34    0.00    0.00    0.00    0.00    0.00     0.00    0.00    0.00    0.00
  166    1.80    0.00    0.68    0.00    0.00    0.00   66.61    2.32    3.20    0.69    0.00    0.00    0.00    0.00    0.00     0.00    0.00    0.00    0.00
  167   30.50    2.05   13.74    0.00    0.24    0.00   71.77    2.46    2.69   15.80    0.00    0.00    0.03    0.00    0.00     0.00    0.00    0.00    0.00
  168    0.80    0.00    4.73    0.00    0.00    0.00   70.08    2.48    3.56    4.73    0.00    0.00    0.01    0.00    0.00     0.00    0.00    0.00    0.00
  169    1.50    0.00    1.75    0.00    0.00    0.00   69.33    2.05    2.57    1.76    0.00    0.00    0.00    0.00    0.00     0.00    0.00    0.00    0.00
  170    0.50    0.00    0.60    0.00    0.00    0.00   68.60    1.23    2.34    0.61    0.00    0.00    0.00    0.00    0.00     0.00    0.00    0.00    0.00
  171    0.30    0.00    0.21    0.00    0.00    0.00   67.68    1.22    2.57    0.22    0.00    0.00    0.00    0.00    0.00     0.00    0.00    0.00    0.00
  172    0.00    0.00    0.07    0.00    0.00    0.00   66.29    1.40    3.73    0.08    0.00    0.00    0.00    0.00    0.00     0.00    0.00    0.00    0.00
  173    4.10    0.00    0.91    0.00    0.00    0.00   66.53    2.51    4.48    0.92    0.00    0.00    0.00    0.00    0.00     0.00    0.00    0.00    0.00
  174    6.10    0.01    1.88    0.01    0.00    0.00   67.65    2.58    3.94    1.90    0.00    0.00    0.00    0.00    0.00     0.00    0.00    0.00    0.00
  175    8.90    0.02    3.22    0.01    0.01    0.00   70.10    2.50    2.79    3.25    0.00    0.00    0.00    0.00    0.00     0.00    0.00    0.00    0.00
  176   17.30    0.13    9.00    0.01    0.20    0.00   73.13    1.92    2.08    9.14    0.00    0.00    0.02    0.00    0.00     0.00    0.00    0.00    0.00
  177    0.00    0.00    3.09    0.01    0.00    0.00   71.71    1.42    2.57    3.11    0.00    0.00    0.01    0.00    0.00     0.00    0.00    0.00    0.00
  178    0.00    0.00    1.06    0.01    0.00    0.00   71.01    0.69    1.46    1.08    0.00    0.00    0.00    0.00    0.00     0.00    0.00    0.00    0.00
  179    3.00    0.00    0.91    0.01    0.00    0.00   70.59    2.58    3.50    0.93    0.00    0.00    0.00    0.00    0.00     0.00    0.00    0.00    0.00
  180    0.30    0.00    0.31    0.01    0.00    0.00   69.43    1.46    2.97    0.33    0.00    0.00    0.00    0.00    0.00     0.00    0.00    0.00    0.00
  181    4.80    0.01    1.26    0.01    0.00    0.00   70.54    1.92    2.17    1.28    0.00    0.00    0.00    0.00    0.00     0.00    0.00    0.00    0.00
    6  299.10   94.40  127.07    0.11    0.62    0.00   70.54   59.97   88.51  221.75    0.28    0.01    0.28    0.01    0.01     0.38    0.01    0.05    0.00
  182    2.30    0.00    0.84    0.01    0.00    0.00   69.58    2.65    3.82    0.85    0.00    0.00    0.00    0.00    0.00     0.00    0.00    0.00    0.00
  183   14.00    0.07    5.62    0.01    0.11    0.00   72.37    2.90    3.44    5.70    0.00    0.00    0.01    0.00    0.00     0.00    0.00    0.00    0.00
  184    6.90    0.02    4.37    0.01    0.06    0.00   71.78    3.70    4.89    4.39    0.00    0.00    0.01    0.00    0.00     0.00    0.00    0.00    0.00
  185    0.00    0.00    1.50    0.01    0.00    0.00   69.81    1.97    4.31    1.51    0.00    0.00    0.00    0.00    0.00     0.00    0.00    0.00    0.00
  186    7.60    0.01    2.50    0.01    0.00    0.00   71.45    2.93    3.70    2.52    0.00    0.00    0.00    0.00    0.01     0.00    0.00    0.00    0.00
  187    1.50    0.00    1.00    0.01    0.00    0.00   70.02    2.70    3.88    1.02    0.00    0.00    0.00    0.00    0.01     0.00    0.00    0.00    0.00
  188    5.10    0.01    1.60    0.01    0.00    0.00   72.13    1.07    1.16    1.62    0.00    0.00    0.00    0.00    0.00     0.00    0.00    0.00    0.00
  189    0.30    0.00    0.55    0.01    0.00    0.00   71.05    1.38    1.85    0.57    0.00    0.00    0.00    0.00    0.01     0.00    0.00    0.00    0.00
  190    0.00    0.00    0.19    0.01    0.00    0.00   69.87    1.18    2.26    0.20    0.00    0.00    0.00    0.00    0.02     0.00    0.00    0.00    0.00
  191    2.80    0.00    0.61    0.01    0.00    0.00   69.79    2.04    2.40    0.63    0.00    0.00    0.00    0.00    0.02     0.00    0.00    0.00    0.00
  192    0.30    0.00    0.21    0.01    0.00    0.00   68.95    1.14    2.26    0.22    0.00    0.00    0.00    0.00    0.03     0.00    0.00    0.00    0.00
  193   14.70    0.07    5.49    0.01    0.08    0.00   73.21    2.04    2.14    5.57    0.00    0.00    0.01    0.00    0.03     0.00    0.00    0.00    0.00
  194   24.40    1.10   13.83    0.01    0.47    0.00   76.28    1.55    1.63   14.95    0.00    0.00    0.04    0.01    0.03     0.00    0.00    0.00    0.00
  195    2.00    0.00    5.14    0.01    0.00    0.00   75.80    1.88    1.98    5.16    0.00    0.00    0.01    0.00    0.03     0.00    0.00    0.00    0.00
  196    9.40    0.03    5.97    0.01    0.16    0.00   76.05    2.56    2.72    6.01    0.00    0.00    0.02    0.00    0.05     0.00    0.00    0.00    0.00
  197    5.10    0.01    3.64    0.01    0.04    0.00   75.72    2.97    3.42    3.67    0.00    0.00    0.01    0.00    0.03     0.00    0.00    0.00    0.00
  198   31.80    3.34   15.75    0.01    0.59    0.00   78.05    3.43    4.22   19.11    0.01    0.01    0.04    0.01    0.01     0.01    0.00    0.00    0.00
  199   10.40    0.04    9.57    0.01    0.13    0.00   78.95    3.00    3.46    9.64    0.00    0.00    0.02    0.00    0.01     0.00    0.00    0.00    0.00
  200   33.50    4.34   18.18    0.02    0.66    0.00   81.49    3.26    3.91   22.54    0.03    0.00    0.03    0.01    0.01     0.03    0.00    0.00    0.00
  201   27.40    2.49   18.67    0.02    0.61    0.00   84.38    2.49    2.61   21.18    0.00    0.00    0.03    0.01    0.01     0.02    0.00    0.00    0.00
  202    0.00    0.00    6.42    0.02    0.00    0.00   83.50    0.88    1.58    6.45    0.00    0.00    0.01    0.00    0.01     0.00    0.00    0.00    0.00
  203    0.00    0.00    2.21    0.03    0.00    0.00   82.31    1.18    2.30    2.24    0.00    0.00    0.00    0.00    0.01     0.00    0.00    0.00    0.00
  204    0.00    0.00    0.76    0.03    0.00    0.00   80.89    1.42    3.31    0.79    0.00    0.00    0.00    0.00    0.00     0.00    0.00    0.00    0.00
  205   13.70    0.09    5.15    0.03    0.13    0.00   83.10    3.83    4.87    5.27    0.00    0.00    0.00    0.00    0.01     0.00    0.00    0.00    0.00
  206    0.00    0.00    1.77    0.03    0.00    0.00   80.40    2.70    5.71    1.81    0.00    0.00    0.00    0.00    0.01     0.00    0.00    0.00    0.00
  207    0.00    0.00    0.61    0.03    0.00    0.00   78.64    1.76    4.86    0.65    0.00    0.00    0.00    0.00    0.01     0.00    0.00    0.00    0.00
  208   23.40    1.20    8.93    0.04    0.26    0.00   83.57    3.72    4.66   10.18    0.00    0.00    0.01    0.00    0.00     0.00    0.00    0.00    0.00
  209    4.10    0.01    4.01    0.04    0.00    0.00   82.99    3.25    4.17    4.06    0.00    0.00    0.00    0.00    0.00     0.00    0.00    0.00    0.00
  210    4.80    0.01    2.54    0.04    0.00    0.00   82.81    3.19    4.01    2.59    0.00    0.00    0.00    0.00    0.00     0.00    0.00    0.00    0.00
  211    0.50    0.00    0.87    0.04    0.00    0.00   81.02    2.30    3.87    0.92    0.00    0.00    0.00    0.00    0.00     0.00    0.00    0.00    0.00
  212    2.80    0.00    0.81    0.04    0.00    0.00   80.53    2.51    3.58    0.86    0.00    0.00    0.00    0.00    0.00     0.00    0.00    0.00    0.00
    7  248.80   12.84  149.32    0.58    3.31    0.00   80.53   73.58  102.98  162.88    0.04    0.02    0.28    0.05    0.40     0.07    0.00    0.01    0.00
  213    9.70    0.03    3.16    0.04    0.01    0.00   83.20    2.61    2.80    3.23    0.00    0.00    0.00    0.00    0.00     0.00    0.00    0.00    0.00
  214    0.30    0.00    1.09    0.04    0.00    0.00   81.87    1.63    2.72    1.13    0.00    0.00    0.00    0.00    0.00     0.00    0.00    0.00    0.00
  215   21.10    0.91    9.49    0.05    0.39    0.00   85.84    1.93    2.01   10.46    0.01    0.00    0.02    0.01    0.00     0.01    0.00    0.00    0.00
  216   14.00    0.13   10.05    0.05    0.38    0.00   85.75    3.24    3.81   10.23    0.00    0.00    0.02    0.01    0.00     0.00    0.00    0.00    0.00
  217   16.50    0.35   10.99    0.05    0.38    0.00   86.91    3.14    3.65   11.39    0.00    0.00    0.02    0.01    0.00     0.00    0.00    0.00    0.00
  218    4.80    0.01    5.01    0.05    0.01    0.00   86.52    3.29    3.91    5.07    0.00    0.00    0.01    0.00    0.00     0.00    0.00    0.00    0.00
  219    0.00    0.00    1.72    0.05    0.00    0.00   83.77    2.75    5.47    1.78    0.00    0.00    0.00    0.00    0.00     0.00    0.00    0.00    0.00
  220    0.50    0.00    0.59    0.05    0.00    0.00   81.50    2.77    6.27    0.65    0.00    0.00    0.00    0.00    0.00     0.00    0.00    0.00    0.00
  221    7.10    0.00    2.02    0.05    0.00    0.00   82.54    3.30    5.25    2.08    0.00    0.00    0.00    0.00    0.00     0.00    0.00    0.00    0.00
  222   74.70   29.47   22.95    0.06    1.19    0.00   90.02    2.64    2.79   52.48    0.23    0.00    0.03    0.02    0.00     0.29    0.00    0.04    0.00
  223    0.00    0.00    7.89    0.06    0.00    0.00   87.93    2.08    3.76    7.95    0.00    0.00    0.01    0.00    0.00     0.00    0.00    0.00    0.00
  224    0.30    0.00    2.71    0.06    0.00    0.00   86.78    1.45    2.91    2.78    0.00    0.00    0.00    0.00    0.00     0.00    0.00    0.00    0.00
  225    0.00    0.00    0.93    0.06    0.00    0.00   85.27    1.51    3.71    1.00    0.00    0.00    0.00    0.00    0.00     0.00    0.00    0.00    0.00
  226    0.00    0.00    0.32    0.06    0.00    0.00   83.65    1.61    4.66    0.39    0.00    0.00    0.00    0.00    0.00     0.00    0.00    0.00    0.00
  227   30.00    3.61   10.92    0.06    0.38    0.00   89.10    4.08    5.20   14.60    0.03    0.00    0.01    0.01    0.00     0.04    0.00    0.01    0.00
  228  103.10   54.49   29.16    0.07    1.68    0.00   94.17    3.15    3.60   83.72    0.98    0.00    0.04    0.03    0.00     1.26    0.00    0.15    0.00
  229   88.60   44.64   33.23    0.07    1.62    0.00   99.53    1.61    1.67   77.95    0.00    0.00    0.04    0.03    0.00     0.41    0.00    0.05    0.00
  230    8.10    0.03   15.13    0.08    0.22    0.00  100.00    1.73    1.79   15.25    0.00    0.00    0.02    0.00    0.00     0.00    0.00    0.00    0.00
  231   37.60    9.52   20.11    0.08    1.04    0.00  102.62    1.70    1.76   29.72    0.05    0.00    0.02    0.02    0.00     0.06    0.00    0.01    0.00
  232    0.50    0.00    6.92    0.09    0.00    0.00  102.00    1.12    1.42    7.01    0.00    0.00    0.01    0.00    0.00     0.00    0.00    0.00    0.00
  233   13.00    0.30    8.41    0.10    0.34    0.00  102.61    2.56    2.64    8.81    0.00    0.00    0.01    0.01    0.00     0.00    0.00    0.00    0.00
  234    0.00    0.00    2.89    0.10    0.00    0.00   99.58    3.04    5.41    3.00    0.00    0.00    0.00    0.00    0.00     0.00    0.00    0.00    0.00
  235    0.00    0.00    1.00    0.11    0.00    0.00   97.73    1.84    4.36    1.11    0.00    0.00    0.00    0.00    0.00     0.00    0.00    0.00    0.00
  236    1.30    0.00    0.35    0.11    0.00    0.00   96.75    2.28    3.47    0.46    0.00    0.00    0.00    0.00    0.00     0.00    0.00    0.00    0.00
  237    0.80    0.00    0.12    0.11    0.00    0.00   95.50    2.04    3.63    0.24    0.00    0.00    0.00    0.00    0.00     0.00    0.00    0.00    0.00
  238   30.20    5.19    9.97    0.12    0.36    0.00  101.97    3.04    3.33   15.29    0.05    0.00    0.01    0.01    0.00     0.06    0.00    0.01    0.00
  239    0.50    0.00    3.43    0.12    0.00    0.00   99.94    2.53    3.82    3.56    0.00    0.00    0.00    0.00    0.00     0.00    0.00    0.00    0.00
  240    0.00    0.00    1.18    0.12    0.00    0.00   98.10    1.84    4.00    1.31    0.00    0.00    0.00    0.00    0.00     0.00    0.00    0.00    0.00
  241    0.00    0.00    0.41    0.13    0.00    0.00   96.59    1.51    3.93    0.54    0.00    0.00    0.00    0.00    0.00     0.00    0.00    0.00    0.00
  242    0.00    0.00    0.14    0.13    0.00    0.00   94.78    1.80    5.28    0.27    0.00    0.00    0.00    0.00    0.00     0.00    0.00    0.00    0.00
  243    5.10    0.00    1.21    0.13    0.00    0.00   95.77    2.33    3.58    1.35    0.00    0.00    0.00    0.00    0.00     0.00    0.00    0.00    0.00
    8  467.80  148.68  223.50    2.47    8.00    0.00   95.77   72.16  112.59  374.80    1.35    0.01    0.27    0.14    0.09     2.13    0.01    0.26    0.00
  244   44.70   13.01   14.43    0.13    0.68    0.00  102.54    2.89    3.08   27.58    0.18    0.00    0.01    0.01    0.00     0.21    0.00    0.03    0.00
  245    2.80    0.00    5.50    0.14    0.00    0.00  102.00    2.52    2.65    5.65    0.00    0.00    0.01    0.00    0.00     0.00    0.00    0.00    0.00
  246    1.30    0.00    1.98    0.14    0.00    0.00  101.48    1.68    1.73    2.12    0.00    0.00    0.00    0.00    0.00     0.00    0.00    0.00    0.00
  247    0.00    0.00    0.68    0.14    0.00    0.00   99.53    1.95    3.45    0.82    0.00    0.00    0.00    0.00    0.00     0.00    0.00    0.00    0.00
  248    0.00    0.00    0.23    0.14    0.00    0.00   97.68    1.86    4.25    0.38    0.00    0.00    0.00    0.00    0.00     0.00    0.00    0.00    0.00
  249    0.00    0.00    0.08    0.14    0.00    0.00   95.97    1.70    4.63    0.23    0.00    0.00    0.00    0.00    0.00     0.00    0.00    0.00    0.00
  250   25.10    3.11    8.37    0.14    0.26    0.00  100.65    4.34    5.44   11.62    0.04    0.00    0.01    0.00    0.00     0.04    0.00    0.00    0.00
  251   12.70    0.23    7.88    0.14    0.20    0.00  102.25    3.04    3.31    8.27    0.00    0.00    0.01    0.00    0.00     0.00    0.00    0.00    0.00
  252    7.40    0.02    5.42    0.14    0.10    0.00  102.49    2.91    3.10    5.59    0.00    0.00    0.01    0.00    0.00     0.00    0.00    0.00    0.00
  253    3.60    0.00    2.66    0.14    0.00    0.00  101.17    3.70    4.50    2.81    0.00    0.00    0.00    0.00    0.00     0.00    0.00    0.00    0.00
  254    0.30    0.00    0.91    0.14    0.00    0.00   98.14    3.32    6.16    1.06    0.00    0.00    0.00    0.00    0.00     0.00    0.00    0.00    0.00
  255    1.30    0.00    0.35    0.14    0.00    0.00   95.80    3.59    6.83    0.50    0.00    0.00    0.00    0.00    0.00     0.00    0.00    0.00    0.00
  256    8.40    0.01    2.37    0.14    0.00    0.00   96.95    3.80    5.95    2.53    0.00    0.00    0.00    0.00    0.00     0.00    0.00    0.00    0.00
  257    0.30    0.00    0.82    0.14    0.00    0.00   94.91    2.35    5.12    0.96    0.00    0.00    0.00    0.00    0.00     0.00    0.00    0.00    0.00
  258    2.30    0.00    0.62    0.14    0.00    0.00   93.95    2.74    4.99    0.77    0.00    0.00    0.00    0.00    0.00     0.00    0.00    0.00    0.00
  259    3.30    0.00    0.91    0.14    0.00    0.00   93.31    2.88    5.39    1.06    0.00    0.00    0.00    0.00    0.00     0.00    0.00    0.00    0.00
  260    5.60    0.00    1.71    0.14    0.00    0.00   94.39    2.40    3.56    1.86    0.00    0.00    0.00    0.00    0.00     0.00    0.00    0.00    0.00
  261   16.50    0.63    6.09    0.14    0.01    0.00   97.92    3.94    4.89    6.86    0.01    0.00    0.00    0.00    0.00     0.01    0.00    0.00    0.00
  262    0.30    0.00    2.09    0.14    0.00    0.00   95.79    2.43    4.38    2.24    0.00    0.00    0.00    0.00    0.00     0.00    0.00    0.00    0.00
  263    0.30    0.00    0.72    0.14    0.00    0.00   93.30    2.79    6.42    0.86    0.00    0.00    0.00    0.00    0.00     0.00    0.00    0.00    0.00
  264   14.70    0.30    4.71    0.14    0.01    0.00   97.29    3.61    4.35    5.15    0.01    0.00    0.00    0.00    0.00     0.01    0.00    0.00    0.00
  265    1.50    0.00    1.76    0.13    0.00    0.00   95.38    3.19    4.54    1.90    0.00    0.00    0.00    0.00    0.00     0.00    0.00    0.00    0.00
  266    0.30    0.00    0.61    0.13    0.00    0.00   92.51    3.17    6.91    0.74    0.00    0.00    0.00    0.00    0.00     0.00    0.00    0.00    0.00
  267    0.00    0.00    0.21    0.13    0.00    0.00   90.22    2.28    6.87    0.35    0.00    0.00    0.00    0.00    0.00     0.00    0.00    0.00    0.00
  268    0.50    0.00    0.07    0.13    0.00    0.00   88.33    2.39    7.18    0.21    0.00    0.00    0.00    0.00    0.00     0.00    0.00    0.00    0.00
  269    0.00    0.00    0.02    0.13    0.00    0.00   86.41    1.93    7.48    0.16    0.00    0.00    0.00    0.00    0.00     0.00    0.00    0.00    0.00
  270    0.00    0.00    0.01    0.13    0.00    0.00   84.60    1.81    8.04    0.14    0.00    0.00    0.00    0.00    0.00     0.00    0.00    0.00    0.00
  271   10.90    0.01    2.94    0.12    0.00    0.00   88.05    2.95    5.92    3.09    0.00    0.00    0.00    0.00    0.00     0.00    0.00    0.00    0.00
  272    0.30    0.00    1.01    0.12    0.00    0.00   86.77    1.58    4.02    1.14    0.00    0.00    0.00    0.00    0.00     0.00    0.00    0.00    0.00
  273    2.30    0.00    0.69    0.12    0.00    0.00   86.09    2.47    5.20    0.82    0.00    0.00    0.00    0.00    0.00     0.00    0.00    0.00    0.00
    9  166.70   17.32   75.86    4.09    1.26    0.00   86.09   82.21  150.36   97.45    0.23    0.00    0.06    0.02    0.06     0.27    0.00    0.03    0.00
  274    0.00    0.00    0.24    0.12    0.00    0.00   84.59    1.49    5.18    0.36    0.00    0.00    0.00    0.00    0.00     0.00    0.00    0.00    0.00
  275    7.10    0.00    1.88    0.12    0.00    0.00   86.76    2.20    3.74    2.00    0.00    0.00    0.00    0.00    0.00     0.00    0.00    0.00    0.00
  276    0.50    0.00    0.64    0.11    0.00    0.00   85.36    1.90    4.51    0.76    0.00    0.00    0.00    0.00    0.00     0.00    0.00    0.00    0.00
  277    0.00    0.00    0.22    0.11    0.00    0.00   83.68    1.68    5.98    0.34    0.00    0.00    0.00    0.00    0.00     0.00    0.00    0.00    0.00
  278    0.50    0.00    0.08    0.11    0.00    0.00   82.41    1.77    5.73    0.19    0.00    0.00    0.00    0.00    0.00     0.00    0.00    0.00    0.00
  279    1.50    0.00    0.12    0.11    0.00    0.00   81.90    1.87    3.84    0.23    0.00    0.00    0.00    0.00    0.00     0.00    0.00    0.00    0.00
  280    2.50    0.00    0.49    0.11    0.00    0.00   81.71    2.01    4.35    0.60    0.00    0.00    0.00    0.00    0.00     0.00    0.00    0.00    0.00
  281    0.30    0.00    0.17    0.10    0.00    0.00   80.95    1.06    3.21    0.28    0.00    0.00    0.00    0.00    0.00     0.00    0.00    0.00    0.00
  282    0.50    0.00    0.06    0.10    0.00    0.00   80.01    1.45    4.46    0.16    0.00    0.00    0.00    0.00    0.00     0.00    0.00    0.00    0.00
  283   72.40   27.27   17.67    0.10    0.22    0.00   94.38    3.64    4.38   45.05    0.51    0.01    0.03    0.00    0.00     0.58    0.00    0.07    0.00
  284    9.90    0.05    9.65    0.10    0.10    0.00   94.92    3.75    4.57    9.80    0.00    0.00    0.01    0.00    0.00     0.00    0.00    0.00    0.00
  285    0.30    0.00    3.32    0.10    0.00    0.00   92.76    2.45    4.35    3.42    0.00    0.00    0.00    0.00    0.00     0.00    0.00    0.00    0.00
  286    6.10    0.02    2.65    0.09    0.00    0.00   93.05    3.50    4.77    2.77    0.00    0.00    0.00    0.00    0.00     0.00    0.00    0.00    0.00
  287    0.30    0.00    0.91    0.09    0.00    0.00   90.43    2.92    6.00    1.01    0.00    0.00    0.00    0.00    0.00     0.00    0.00    0.00    0.00
  288   43.70   11.41   14.86    0.09    0.63    0.00   95.86    4.05    5.04   26.36    0.18    0.00    0.03    0.01    0.00     0.20    0.00    0.02    0.00
  289    0.00    0.00    5.11    0.09    0.00    0.00   93.22    2.64    5.45    5.21    0.00    0.00    0.01    0.00    0.00     0.00    0.00    0.00    0.00
  290    2.30    0.00    2.08    0.09    0.00    0.00   91.89    3.13    5.41    2.18    0.00    0.00    0.00    0.00    0.00     0.00    0.00    0.00    0.00
  291    2.00    0.00    1.01    0.09    0.00    0.00   90.04    3.40    6.86    1.11    0.00    0.00    0.00    0.00    0.00     0.00    0.00    0.00    0.00
  292   27.40    3.47    9.59    0.09    0.25    0.00   95.61    4.02    5.03   13.15    0.10    0.00    0.01    0.01    0.00     0.10    0.00    0.01    0.00
  293    6.10    0.02    4.92    0.09    0.01    0.00   95.03    4.17    5.31    5.03    0.00    0.00    0.00    0.00    0.01     0.00    0.00    0.00    0.00
  294    0.00    0.00    1.69    0.08    0.00    0.00   92.37    2.66    5.59    1.78    0.00    0.00    0.00    0.00    0.01     0.00    0.00    0.00    0.00
  295    0.00    0.00    0.58    0.08    0.00    0.00   90.41    1.96    5.40    0.66    0.00    0.00    0.00    0.00    0.00     0.00    0.00    0.00    0.00
  296    0.00    0.00    0.20    0.07    0.00    0.00   88.21    2.20    7.16    0.28    0.00    0.00    0.00    0.00    0.00     0.00    0.00    0.00    0.00
  297    1.00    0.00    0.07    0.07    0.00    0.00   86.81    2.40    6.12    0.15    0.00    0.00    0.00    0.00    0.01     0.00    0.00    0.00    0.00
  298    0.00    0.00    0.02    0.07    0.00    0.00   85.16    1.65    6.24    0.10    0.00    0.00    0.00    0.00    0.00     0.00    0.00    0.00    0.00
  299    0.00    0.00    0.01    0.07    0.00    0.00   83.77    1.39    6.21    0.08    0.00    0.00    0.00    0.00    0.00     0.00    0.00    0.00    0.00
  300    0.00    0.00    0.00    0.07    0.00    0.00   82.16    1.61    7.96    0.08    0.00    0.00    0.00    0.00    0.00     0.00    0.00    0.00    0.00
  301    0.00    0.00    0.00    0.07    0.00    0.00   80.89    1.27    6.86    0.07    0.00    0.00    0.00    0.00    0.00     0.00    0.00    0.00    0.00
  302    0.30    0.00    0.00    0.07    0.00    0.00   80.12    1.08    4.85    0.07    0.00    0.00    0.00    0.00    0.00     0.00    0.00    0.00    0.00
  303   12.70    0.02    3.51    0.07    0.00    0.00   85.06    2.39    4.77    3.60    0.00    0.00    0.00    0.00    0.00     0.00    0.00    0.00    0.00
  304   37.10    7.01   12.91    0.06    0.13    0.00   93.70    3.49    4.22   19.99    0.43    0.00    0.01    0.00    0.00     0.37    0.00    0.05    0.00
   10  234.50   49.26   94.68    2.77    1.35    0.00   93.70   75.19  163.55  146.88    1.22    0.01    0.13    0.03    0.06     1.26    0.00    0.15    0.00
  305    1.30    0.00    4.52    0.06    0.00    0.00   91.30    3.57    5.51    4.59    0.00    0.00    0.00    0.00    0.00     0.00    0.00    0.00    0.00
  306    3.60    0.00    2.34    0.06    0.00    0.00   91.57    2.13    2.62    2.41    0.00    0.00    0.00    0.00    0.00     0.00    0.00    0.00    0.00
  307    0.00    0.00    0.81    0.06    0.00    0.00   89.02    2.55    6.10    0.87    0.00    0.00    0.00    0.00    0.00     0.00    0.00    0.00    0.00
  308    0.00    0.00    0.28    0.06    0.00    0.00   86.59    2.43    7.62    0.34    0.00    0.00    0.00    0.00    0.00     0.00    0.00    0.00    0.00
  309    0.00    0.00    0.10    0.04    0.00    0.00   84.66    1.92    7.33    0.14    0.00    0.00    0.00    0.00    0.00     0.00    0.00    0.00    0.00
  310    0.00    0.00    0.03    0.03    0.00    0.00   83.00    1.66    7.25    0.07    0.00    0.00    0.00    0.00    0.00     0.00    0.00    0.00    0.00
  311    0.00    0.00    0.01    0.03    0.00    0.00   81.55    1.45    7.05    0.05    0.00    0.00    0.00    0.00    0.00     0.00    0.00    0.00    0.00
  312    3.00    0.00    0.53    0.03    0.00    0.00   81.36    2.39    6.63    0.56    0.00    0.00    0.00    0.00    0.00     0.00    0.00    0.00    0.00
  313    5.30    0.00    1.49    0.03    0.00    0.00   82.39    2.28    5.37    1.52    0.00    0.00    0.00    0.00    0.00     0.00    0.00    0.00    0.00
  314    3.60    0.00    1.30    0.03    0.00    0.00   83.00    1.79    3.14    1.33    0.00    0.00    0.00    0.00    0.00     0.00    0.00    0.00    0.00
  315    3.00    0.00    1.06    0.03    0.00    0.00   83.00    2.07    4.07    1.09    0.00    0.00    0.00    0.00    0.00     0.00    0.00    0.00    0.00
  316    1.30    0.00    0.45    0.03    0.00    0.00   82.21    1.96    3.88    0.48    0.00    0.00    0.00    0.00    0.00     0.00    0.00    0.00    0.00
  317   38.40    7.12   12.13    0.03    0.09    0.00   91.60    3.55    4.38   19.28    0.25    0.00    0.02    0.00    0.00     0.24    0.00    0.03    0.00
  318    0.00    0.00    4.17    0.03    0.00    0.00   89.86    1.74    3.45    4.20    0.00    0.00    0.01    0.00    0.00     0.00    0.00    0.00    0.00
  319    0.00    0.00    1.43    0.03    0.00    0.00   89.26    0.59    1.43    1.47    0.00    0.00    0.00    0.00    0.00     0.00    0.00    0.00    0.00
  320    0.00    0.00    0.49    0.03    0.00    0.00   87.25    2.01    5.47    0.53    0.00    0.00    0.00    0.00    0.00     0.00    0.00    0.00    0.00
  321    0.00    0.00    0.17    0.03    0.00    0.00   86.07    1.18    3.82    0.20    0.00    0.00    0.00    0.00    0.00     0.00    0.00    0.00    0.00
  322    9.40    0.02    2.57    0.02    0.00    0.00   88.18    3.44    5.34    2.61    0.00    0.00    0.00    0.00    0.00     0.00    0.00    0.00    0.00
  323    4.80    0.01    2.06    0.02    0.00    0.00   87.23    3.96    6.50    2.08    0.00    0.00    0.00    0.00    0.00     0.00    0.00    0.00    0.00
  324    8.60    0.02    3.10    0.02    0.00    0.00   89.53    2.63    3.01    3.14    0.00    0.00    0.00    0.00    0.00     0.00    0.00    0.00    0.00
  325    2.30    0.00    1.46    0.02    0.00    0.00   87.88    3.34    4.73    1.49    0.00    0.00    0.00    0.00    0.00     0.00    0.00    0.00    0.00
  326    3.30    0.00    1.21    0.02    0.00    0.00   87.36    2.74    3.88    1.23    0.00    0.00    0.00    0.00    0.00     0.00    0.00    0.00    0.00
  327    0.30    0.00    0.42    0.02    0.00    0.00   85.57    2.09    4.40    0.44    0.00    0.00    0.00    0.00    0.00     0.00    0.00    0.00    0.00
  328   48.30   12.93   16.00    0.02    0.55    0.00   92.62    3.61    4.43   28.95    0.55    0.00    0.04    0.02    0.00     0.51    0.00    0.06    0.00
  329    0.00    0.00    5.50    0.02    0.00    0.00   90.12    2.50    5.11    5.52    0.00    0.00    0.01    0.00    0.00     0.00    0.00    0.00    0.00
  330    0.00    0.00    1.89    0.02    0.00    0.00   87.72    2.39    6.46    1.92    0.00    0.00    0.00    0.00    0.00     0.00    0.00    0.00    0.00
  331    5.30    0.01    1.89    0.02    0.00    0.00   87.84    3.29    6.02    1.92    0.00    0.00    0.00    0.00    0.00     0.00    0.00    0.00    0.00
  332    6.10    0.01    2.22    0.02    0.00    0.00   88.37    3.16    5.12    2.26    0.00    0.00    0.00    0.00    0.00     0.00    0.00    0.00    0.00
  333    0.50    0.00    0.77    0.02    0.00    0.00   86.11    2.75    6.09    0.79    0.00    0.00    0.00    0.00    0.00     0.00    0.00    0.00    0.00
  334   32.50    4.95   11.55    0.02    0.32    0.00   92.85    3.28    3.78   16.53    0.34    0.00    0.02    0.01    0.00     0.28    0.00    0.03    0.00
   11  180.90   25.08   81.93    0.88    0.98    0.00   92.85   74.48  149.94  108.03    1.14    0.00    0.12    0.03    0.00     1.03    0.00    0.13    0.00
  335   10.90    0.05    8.50    0.02    0.20    0.00   92.73    3.87    4.76    8.58    0.00    0.00    0.02    0.01    0.00     0.00    0.00    0.00    0.00
  336    0.30    0.00    2.92    0.02    0.00    0.00   91.78    1.24    2.20    2.95    0.00    0.00    0.01    0.00    0.00     0.00    0.00    0.00    0.00
  337    5.80    0.01    2.48    0.03    0.00    0.00   91.30    4.02    5.42    2.52    0.00    0.00    0.00    0.00    0.00     0.00    0.00    0.00    0.00
  338    2.30    0.00    1.24    0.03    0.00    0.00   89.75    3.26    5.02    1.27    0.00    0.00    0.00    0.00    0.00     0.00    0.00    0.00    0.00
  339    4.30    0.00    1.43    0.03    0.00    0.00   89.42    3.11    4.69    1.46    0.00    0.00    0.00    0.00    0.00     0.00    0.00    0.00    0.00
  340   22.60    1.74    9.22    0.03    0.31    0.00   92.70    3.96    4.92   10.99    0.20    0.00    0.02    0.01    0.00     0.14    0.00    0.02    0.00
  341   14.50    0.28    9.30    0.03    0.28    0.00   94.12    3.18    3.60    9.61    0.00    0.00    0.02    0.01    0.00     0.01    0.00    0.00    0.00
  342    0.50    0.00    3.20    0.03    0.00    0.00   91.81    2.80    4.58    3.23    0.00    0.00    0.01    0.00    0.00     0.00    0.00    0.00    0.00
  343   50.50   15.69   18.15    0.03    1.02    0.00   96.27    3.36    3.87   33.87    1.75    0.00    0.05    0.03    0.00     1.28    0.00    0.16    0.00
  344   21.60    1.92   15.72    0.04    0.54    0.00   97.63    3.33    3.81   17.68    0.00    0.00    0.04    0.02    0.00     0.09    0.00    0.01    0.00
  345   41.10   11.14   20.68    0.04    1.01    0.00  101.01    2.29    2.33   31.86    1.87    0.00    0.04    0.03    0.00     1.17    0.00    0.14    0.00
  346    1.30    0.00    7.19    0.04    0.00    0.00   99.26    2.93    3.53    7.24    0.00    0.00    0.02    0.00    0.00     0.00    0.00    0.00    0.00
  347   17.50    1.02    9.85    0.05    0.39    0.00  100.99    3.12    3.44   10.92    0.08    0.00    0.02    0.01    0.00     0.06    0.00    0.01    0.00
  348    8.40    0.03    6.62    0.05    0.14    0.00  100.36    3.94    4.78    6.70    0.00    0.00    0.01    0.00    0.00     0.00    0.00    0.00    0.00
  349    1.50    0.00    2.42    0.05    0.00    0.00   98.28    3.36    4.93    2.48    0.00    0.00    0.00    0.00    0.00     0.00    0.00    0.00    0.00
  350    1.00    0.00    0.83    0.06    0.00    0.00   95.80    3.48    6.39    0.89    0.00    0.00    0.00    0.00    0.00     0.00    0.00    0.00    0.00
  351    6.60    0.01    1.99    0.06    0.00    0.00   95.38    4.42    7.73    2.06    0.00    0.00    0.00    0.00    0.00     0.00    0.00    0.00    0.00
  352    3.30    0.00    1.38    0.06    0.00    0.00   93.81    3.81    7.43    1.44    0.00    0.00    0.00    0.00    0.00     0.00    0.00    0.00    0.00
  353    0.00    0.00    0.47    0.07    0.00    0.00   91.36    2.45    7.48    0.54    0.00    0.00    0.00    0.00    0.00     0.00    0.00    0.00    0.00
  354    6.40    0.00    1.74    0.07    0.00    0.00   92.09    3.26    6.55    1.82    0.00    0.00    0.00    0.00    0.00     0.00    0.00    0.00    0.00
  355    6.60    0.00    2.30    0.07    0.00    0.00   93.17    2.92    4.79    2.38    0.00    0.00    0.00    0.00    0.00     0.00    0.00    0.00    0.00
  356    0.00    0.00    0.79    0.07    0.00    0.00   91.29    1.89    5.03    0.87    0.00    0.00    0.00    0.00    0.00     0.00    0.00    0.00    0.00
  357    3.30    0.00    0.90    0.07    0.00    0.00   91.43    2.20    3.55    0.98    0.00    0.00    0.00    0.00    0.00     0.00    0.00    0.00    0.00
  358   16.30    0.48    5.46    0.07    0.01    0.00   95.85    3.54    4.26    6.02    0.01    0.00    0.00    0.00    0.00     0.01    0.00    0.00    0.00
  359    3.30    0.00    2.57    0.07    0.00    0.00   95.21    2.88    3.52    2.65    0.00    0.00    0.00    0.00    0.00     0.00    0.00    0.00    0.00
  360    2.00    0.00    1.18    0.07    0.00    0.00   94.14    2.62    3.42    1.26    0.00    0.00    0.00    0.00    0.00     0.00    0.00    0.00    0.00
  361    1.00    0.00    0.41    0.07    0.00    0.00   92.39    2.75    4.38    0.48    0.00    0.00    0.00    0.00    0.00     0.00    0.00    0.00    0.00
  362    0.00    0.00    0.14    0.07    0.00    0.00   90.36    2.02    5.33    0.22    0.00    0.00    0.00    0.00    0.00     0.00    0.00    0.00    0.00
  363    7.10    0.00    1.84    0.07    0.00    0.00   91.27    3.46    5.82    1.92    0.00    0.00    0.00    0.00    0.00     0.00    0.00    0.00    0.00
  364    1.00    0.00    0.63    0.07    0.00    0.00   90.03    2.24    3.69    0.71    0.00    0.00    0.00    0.00    0.00     0.00    0.00    0.00    0.00
  365   48.80   14.27   14.91    0.08    0.41    0.00   97.92    3.83    4.62   29.26    2.17    0.00    0.02    0.01    0.00     1.35    0.00    0.16    0.00
   12  309.80   46.66  156.46    1.64    4.30    0.00   97.92   95.55  145.84  204.89    6.09    0.01    0.28    0.12    0.00     4.11    0.00    0.50    0.00

 2013 3096.30  616.69 1518.57   30.46   42.39    0.00   97.92  910.80 1499.35 2168.29   31.64    0.10    2.44    1.46   13.55    43.06    0.04    5.26    0.00
1
    SWAT Dec 23 2016    VER 2016/Rev 664                                            

    General Input/Output section (file.cio):                                        
    2/12/2020 14:37:03 QSWAT Workflow v1.5.2                                        
                                                                                    
Annual Summary for Watershed in year    5 of simulation

UNIT                                    PERCO    TILE                           WATER     SED     NO3     NO3     NO3     NO3        N       P       P
TIME     PREC    SURQ    LATQ     GWQ    LATE       Q     SW       ET     PET   YIELD   YIELD    SURQ    LATQ    PERC    CROP  ORGANIC SOLUBLE ORGANIC TILENO3
         (mm)    (mm)    (mm)    (mm)    (mm)    (mm)    (mm)    (mm)    (mm)    (mm)   (t/ha)  ------------------(kg nutrient/ha)-------------------- (kg/ha)
    1   88.40   45.95   27.20    0.08    1.64    0.00  102.91    2.18    2.21   73.22    5.50    0.00    0.06    0.05    0.00    12.19    0.00    1.49    0.00
    2   60.50   25.46   28.10    0.08    1.45    0.00  105.47    2.46    2.49   53.65    0.00    0.00    0.06    0.04    0.00     5.55    0.00    0.68    0.00
    3   51.10   19.30   27.37    0.09    1.75    0.00  105.01    3.53    4.03   46.76    3.03    0.00    0.06    0.05    0.00     3.60    0.00    0.44    0.00
    4   32.50    7.52   22.58    0.09    1.37    0.00  104.83    3.72    4.34   30.21    0.00    0.00    0.05    0.04    0.00     0.68    0.00    0.08    0.00
    5    3.60    0.01    8.55    0.10    0.00    0.00  103.94    3.29    4.01    8.66    0.00    0.00    0.02    0.00    0.00     0.00    0.00    0.00    0.00
    6   38.60   10.83   17.23    0.11    1.39    0.00  106.14    2.39    2.42   28.17    1.47    0.00    0.03    0.04    0.00     1.64    0.00    0.20    0.00
    7   32.30    7.56   19.56    0.11    1.55    0.00  105.92    2.63    2.66   27.24    0.00    0.00    0.04    0.04    0.00     1.07    0.00    0.13    0.00
    8   29.50    6.08   19.45    0.12    1.39    0.00  105.68    2.88    2.99   25.65    0.65    0.00    0.04    0.04    0.00     0.71    0.00    0.09    0.00
    9   29.20    5.90   19.20    0.13    1.34    0.00  105.82    2.75    2.79   25.23    0.07    0.00    0.04    0.04    0.00     0.75    0.00    0.09    0.00
   10    2.50    0.00    7.05    0.13    0.00    0.00  104.47    3.16    3.70    7.19    0.00    0.00    0.01    0.00    0.00     0.00    0.00    0.00    0.00
   11    1.30    0.00    2.50    0.14    0.00    0.00  102.77    2.88    3.85    2.65    0.00    0.00    0.00    0.00    0.00     0.00    0.00    0.00    0.00
   12    0.50    0.00    0.86    0.14    0.00    0.00  100.93    2.34    4.21    1.01    0.00    0.00    0.00    0.00    0.00     0.00    0.00    0.00    0.00
   13    0.50    0.00    0.30    0.15    0.00    0.00   99.16    2.27    4.87    0.45    0.00    0.00    0.00    0.00    0.00     0.00    0.00    0.00    0.00
   14    7.10    0.02    1.92    0.15    0.00    0.00   99.77    3.70    6.06    2.10    0.00    0.00    0.00    0.00    0.00     0.00    0.00    0.00    0.00
   15    0.00    0.00    0.66    0.16    0.00    0.00   97.21    2.55    6.64    0.82    0.00    0.00    0.00    0.00    0.00     0.00    0.00    0.00    0.00
   16   45.50   13.85   13.51    0.16    0.60    0.00  103.66    4.36    5.37   27.53    3.00    0.00    0.01    0.02    0.00     2.74    0.00    0.33    0.00
   17    0.50    0.00    4.65    0.16    0.00    0.00  101.61    2.55    4.28    4.82    0.00    0.00    0.00    0.00    0.00     0.00    0.00    0.00    0.00
   18    0.00    0.00    1.60    0.17    0.00    0.00   99.63    1.98    4.81    1.77    0.00    0.00    0.00    0.00    0.00     0.00    0.00    0.00    0.00
   19    2.80    0.00    1.02    0.17    0.00    0.00   98.80    2.92    5.15    1.20    0.00    0.00    0.00    0.00    0.00     0.00    0.00    0.00    0.00
   20    8.10    0.01    2.51    0.17    0.00    0.00  100.09    3.50    5.20    2.71    0.00    0.00    0.00    0.00    0.00     0.00    0.00    0.00    0.00
   21    1.00    0.00    0.86    0.17    0.00    0.00   97.97    3.11    5.50    1.04    0.00    0.00    0.00    0.00    0.00     0.00    0.00    0.00    0.00
   22    5.30    0.00    1.60    0.17    0.00    0.00   97.53    3.76    6.58    1.78    0.00    0.00    0.00    0.00    0.00     0.00    0.00    0.00    0.00
   23    1.30    0.00    0.63    0.18    0.00    0.00   95.29    3.41    7.09    0.81    0.00    0.00    0.00    0.00    0.00     0.00    0.00    0.00    0.00
   24   11.20    0.03    3.33    0.18    0.00    0.00   97.76    3.96    5.79    3.54    0.00    0.00    0.00    0.00    0.00     0.00    0.00    0.00    0.00
   25   44.40   13.25   15.19    0.18    0.60    0.00  103.71    3.19    3.49   28.62    1.35    0.00    0.02    0.02    0.00     1.38    0.00    0.17    0.00
   26   33.80    8.02   18.34    0.18    0.98    0.00  105.23    3.29    3.65   26.55    0.23    0.00    0.03    0.03    0.00     1.32    0.00    0.16    0.00
   27    5.60    0.01    7.91    0.18    0.03    0.00  103.75    4.59    5.73    8.11    0.00    0.00    0.01    0.00    0.00     0.00    0.00    0.00    0.00
   28    0.50    0.00    2.72    0.18    0.00    0.00  101.29    2.97    5.31    2.91    0.00    0.00    0.00    0.00    0.00     0.00    0.00    0.00    0.00
   29    0.80    0.00    0.94    0.18    0.00    0.00   99.23    2.86    5.71    1.13    0.00    0.00    0.00    0.00    0.00     0.00    0.00    0.00    0.00
   30    4.80    0.00    1.45    0.18    0.00    0.00   98.91    3.39    6.09    1.65    0.00    0.00    0.00    0.00    0.00     0.00    0.00    0.00    0.00
   31    6.40    0.00    2.14    0.18    0.00    0.00   99.24    3.56    5.79    2.34    0.00    0.00    0.00    0.00    0.00     0.00    0.00    0.00    0.00
    1  549.60  163.81  280.94    4.58   14.08    0.00   99.24   96.14  142.81  449.52   15.29    0.01    0.48    0.40    0.00    31.65    0.01    3.87    0.00
   32    1.00    0.00    0.74    0.18    0.00    0.00   97.32    2.92    5.40    0.93    0.00    0.00    0.00    0.00    0.00     0.00    0.00    0.00    0.00
   33    3.00    0.00    0.85    0.18    0.00    0.00   95.98    3.43    7.01    1.04    0.00    0.00    0.00    0.00    0.00     0.00    0.00    0.00    0.00
   34    0.50    0.00    0.29    0.18    0.00    0.00   94.08    2.41    6.30    0.48    0.00    0.00    0.00    0.00    0.00     0.00    0.00    0.00    0.00
   35    0.00    0.00    0.10    0.18    0.00    0.00   92.34    1.74    6.38    0.29    0.00    0.00    0.00    0.00    0.00     0.00    0.00    0.00    0.00
   36    0.00    0.00    0.03    0.18    0.00    0.00   90.86    1.48    6.33    0.22    0.00    0.00    0.00    0.00    0.00     0.00    0.00    0.00    0.00
   37    0.00    0.00    0.01    0.18    0.00    0.00   89.90    0.96    4.47    0.20    0.00    0.00    0.00    0.00    0.00     0.00    0.00    0.00    0.00
   38    0.00    0.00    0.00    0.18    0.00    0.00   88.35    1.55    5.43    0.19    0.00    0.00    0.00    0.00    0.02     0.00    0.00    0.00    0.00
   39   25.10    2.46    6.62    0.18    0.00    0.00   95.78    5.12    6.63    9.27    0.46    0.00    0.00    0.00    0.38     0.37    0.00    0.05    0.00
   40   26.40    3.62   11.56    0.18    0.11    0.00   99.48    4.83    5.90   15.36    0.00    0.00    0.00    0.00    0.43     0.36    0.00    0.04    0.00
   41    0.00    0.00    3.97    0.17    0.00    0.00   96.32    3.16    6.18    4.16    0.00    0.00    0.00    0.00    0.47     0.00    0.00    0.00    0.00
   42    0.00    0.00    1.37    0.17    0.00    0.00   93.56    2.75    6.18    1.55    0.00    0.00    0.00    0.00    0.51     0.00    0.00    0.00    0.00
   43    3.00    0.00    0.99    0.17    0.00    0.00   91.97    3.79    6.51    1.17    0.00    0.00    0.00    0.00    0.62     0.00    0.00    0.00    0.00
   44    2.00    0.00    0.62    0.17    0.00    0.00   89.82    3.72    5.89    0.80    0.00    0.00    0.00    0.00    0.69     0.00    0.00    0.00    0.00
   45   25.90    2.85    7.57    0.17    0.01    0.00   97.11    4.54    4.66   10.60    0.06    0.02    0.00    0.00    0.73     0.08    0.00    0.01    0.00
   46   17.30    0.88    9.16    0.16    0.23    0.00   99.20    4.10    4.10   10.21    0.00    0.01    0.00    0.00    0.60     0.01    0.00    0.00    0.00
   47    2.30    0.00    3.51    0.16    0.00    0.00   95.56    5.38    6.39    3.68    0.00    0.00    0.00    0.00    0.54     0.00    0.00    0.00    0.00
   48    4.10    0.00    2.12    0.16    0.00    0.00   95.10    3.17    3.33    2.29    0.00    0.00    0.00    0.00    0.51     0.00    0.00    0.00    0.00
   49   13.50    0.22    4.93    0.16    0.02    0.00   98.21    3.75    3.75    5.31    0.00    0.01    0.01    0.00    0.52     0.00    0.00    0.00    0.00
   50    2.00    0.00    2.00    0.16    0.00    0.00   95.30    4.44    4.69    2.17    0.00    0.00    0.01    0.00    0.36     0.00    0.00    0.00    0.00
   51   30.00    5.02   11.11    0.15    0.52    0.00   99.81    4.06    4.06   16.30    0.01    0.04    0.06    0.00    0.54     0.01    0.00    0.00    0.00
   52   51.60   18.32   20.62    0.15    1.18    0.00  102.22    4.09    4.09   39.09    0.02    0.03    0.08    0.01    0.41     0.04    0.00    0.00    0.00
   53    0.30    0.00    7.09    0.15    0.00    0.00   99.40    3.12    3.68    7.25    0.00    0.00    0.03    0.00    0.39     0.00    0.00    0.00    0.00
   54    0.80    0.00    2.44    0.15    0.00    0.00   96.34    3.86    4.65    2.60    0.00    0.00    0.01    0.00    0.27     0.00    0.00    0.00    0.00
   55   30.70    5.51   10.54    0.15    0.38    0.00  101.51    4.85    4.86   16.21    0.01    0.01    0.02    0.00    0.27     0.01    0.00    0.00    0.00
   56   30.50    6.03   15.10    0.15    0.73    0.00  102.86    4.90    5.04   21.29    0.00    0.02    0.03    0.01    0.30     0.01    0.00    0.00    0.00
   57   45.50   14.95   20.61    0.16    1.38    0.00  105.16    3.36    3.36   35.73    0.02    0.01    0.03    0.01    0.24     0.04    0.00    0.00    0.00
   58   35.80    9.37   21.20    0.16    1.55    0.00  103.78    4.76    4.86   30.74    0.00    0.01    0.02    0.01    0.16     0.01    0.00    0.00    0.00
   59    0.30    0.00    7.29    0.16    0.00    0.00  100.99    3.09    4.04    7.46    0.00    0.00    0.01    0.00    0.12     0.00    0.00    0.00    0.00
    2  351.60   69.25  172.45    4.68    6.12    0.00  100.99   99.32  144.18  246.59    0.57    0.16    0.32    0.05    9.08     0.93    0.00    0.11    0.00
   60    5.10    0.01    3.73    0.16    0.00    0.00   99.30    4.92    5.69    3.91    0.00    0.00    0.00    0.00    0.17     0.00    0.00    0.00    0.00
   61    6.60    0.01    2.96    0.17    0.00    0.00   99.13    4.21    4.70    3.14    0.00    0.00    0.00    0.00    0.17     0.00    0.00    0.00    0.00
   62    8.60    0.02    3.35    0.17    0.00    0.00   98.75    5.40    5.89    3.55    0.00    0.01    0.00    0.00    0.20     0.00    0.00    0.00    0.00
   63    3.60    0.00    1.90    0.17    0.00    0.00   96.77    4.43    4.95    2.08    0.00    0.00    0.00    0.00    0.26     0.00    0.00    0.00    0.00
   64    0.00    0.00    0.66    0.17    0.00    0.00   93.09    3.68    5.49    0.83    0.00    0.00    0.00    0.00    0.19     0.00    0.00    0.00    0.00
   65   47.20   13.98   12.80    0.17    0.40    0.00  101.95    4.80    4.80   26.96    0.01    0.03    0.02    0.00    0.26     0.01    0.00    0.00    0.00
   66    1.00    0.00    4.40    0.17    0.00    0.00   99.83    3.11    3.38    4.58    0.00    0.00    0.01    0.00    0.17     0.00    0.00    0.00    0.00
   67    7.60    0.02    3.57    0.17    0.00    0.00   99.45    4.83    5.03    3.77    0.00    0.00    0.01    0.00    0.16     0.00    0.00    0.00    0.00
   68    4.30    0.01    2.20    0.17    0.00    0.00   97.30    4.97    5.40    2.38    0.00    0.00    0.00    0.00    0.20     0.00    0.00    0.00    0.00
   69    2.00    0.00    1.02    0.17    0.00    0.00   94.92    3.97    4.36    1.20    0.00    0.00    0.00    0.00    0.21     0.00    0.00    0.00    0.00
   70    0.00    0.00    0.35    0.17    0.00    0.00   91.49    3.43    4.92    0.53    0.00    0.00    0.00    0.00    0.16     0.00    0.00    0.00    0.00
   71    0.50    0.00    0.12    0.17    0.00    0.00   88.74    3.25    4.55    0.30    0.00    0.00    0.00    0.00    0.09     0.00    0.00    0.00    0.00
   72   52.30   16.26   13.01    0.17    0.34    0.00  100.11    4.55    4.55   29.45    0.01    0.00    0.00    0.00    0.12     0.01    0.00    0.00    0.00
   73   30.00    5.61   15.45    0.17    0.69    0.00  102.72    4.36    4.36   21.24    0.00    0.00    0.00    0.00    0.11     0.01    0.00    0.00    0.00
   74    3.00    0.00    5.89    0.17    0.00    0.00  100.68    4.15    4.40    6.07    0.00    0.00    0.00    0.00    0.06     0.00    0.00    0.00    0.00
   75    1.00    0.00    2.03    0.17    0.00    0.00   96.07    5.61    7.33    2.20    0.00    0.00    0.00    0.00    0.02     0.00    0.00    0.00    0.00
   76    6.40    0.01    2.31    0.17    0.00    0.00   94.14    5.86    7.65    2.50    0.00    0.00    0.00    0.00    0.07     0.00    0.00    0.00    0.00
   77    0.30    0.00    0.79    0.17    0.00    0.00   90.57    3.87    6.13    0.97    0.00    0.00    0.00    0.00    0.06     0.00    0.00    0.00    0.00
   78    0.30    0.00    0.27    0.16    0.00    0.00   87.47    3.41    5.25    0.45    0.00    0.00    0.00    0.00    0.06     0.00    0.00    0.00    0.00
   79    4.80    0.00    1.21    0.16    0.00    0.00   86.10    4.46    5.40    1.38    0.00    0.00    0.00    0.00    0.06     0.00    0.00    0.00    0.00
   80    0.00    0.00    0.42    0.16    0.00    0.00   82.47    3.63    5.73    0.59    0.00    0.00    0.00    0.00    0.06     0.00    0.00    0.00    0.00
   81    0.00    0.00    0.14    0.16    0.00    0.00   79.00    3.47    5.73    0.31    0.00    0.00    0.00    0.00    0.06     0.00    0.00    0.00    0.00
   82   10.20    0.01    2.78    0.16    0.00    0.00   80.22    4.82    6.16    2.95    0.00    0.00    0.00    0.00    0.06     0.00    0.00    0.00    0.00
   83   19.10    0.59    6.29    0.16    0.00    0.00   85.68    4.93    5.81    7.04    0.00    0.00    0.00    0.00    0.05     0.00    0.00    0.00    0.00
   84    0.00    0.00    2.16    0.16    0.00    0.00   82.11    3.56    5.35    2.32    0.00    0.00    0.00    0.00    0.06     0.00    0.00    0.00    0.00
   85    0.00    0.00    0.74    0.15    0.00    0.00   78.10    4.02    6.27    0.90    0.00    0.00    0.00    0.00    0.05     0.00    0.00    0.00    0.00
   86    0.00    0.00    0.26    0.15    0.00    0.00   74.06    4.04    6.91    0.42    0.00    0.00    0.00    0.00    0.05     0.00    0.00    0.00    0.00
   87    8.60    0.00    2.33    0.15    0.00    0.00   74.76    4.49    5.23    2.48    0.00    0.00    0.00    0.00    0.04     0.00    0.00    0.00    0.00
   88    0.30    0.00    0.80    0.14    0.00    0.00   72.19    2.87    4.30    0.95    0.00    0.00    0.00    0.00    0.04     0.00    0.00    0.00    0.00
   89    0.00    0.00    0.27    0.14    0.00    0.00   68.52    3.66    5.68    0.42    0.00    0.00    0.00    0.00    0.04     0.00    0.00    0.00    0.00
   90    0.00    0.00    0.09    0.13    0.00    0.00   64.96    3.57    5.83    0.24    0.00    0.00    0.00    0.00    0.04     0.00    0.00    0.00    0.00
    3  222.80   36.54   94.30    5.01    1.43    0.00   64.96  130.34  167.22  136.10    0.02    0.04    0.05    0.01    3.35     0.03    0.00    0.00    0.00
   91   43.70    6.47   12.33    0.13    0.01    0.00   80.99    2.45    2.45   18.94    0.00    0.00    0.00    0.00    0.04     0.00    0.00    0.00    0.00
[...]

 2014 3844.30 1031.95 1723.25   35.51   56.40    0.00  103.14 1033.94 1709.40 2793.24   29.11    0.27    2.39    0.96   13.59    46.69    0.06    5.72    0.00
  366   39.90   11.46   15.24    0.13    1.20    0.00  106.72    1.78    1.81   26.84    0.61    0.00    0.03    0.03    0.00     0.42    0.00    0.05    0.00
    1   39.90   11.46   15.24    0.13    1.20    0.00  106.72    1.78    1.81   26.84    0.61    0.00    0.03    0.03    0.00     0.42    0.00    0.05    0.00

 2014   39.90   11.46   15.24    0.13    1.20    0.00  106.72    1.78    1.81   26.84    0.61    0.00    0.03    0.03    0.00     0.42    0.00    0.05    0.00
1
    SWAT Dec 23 2016    VER 2016/Rev 664                                            

    General Input/Output section (file.cio):                                        
    2/12/2020 14:37:03 QSWAT Workflow v1.5.2                                        
                                                                                    
    FINAL VALUES

1
    SWAT Dec 23 2016    VER 2016/Rev 664                                            

    General Input/Output section (file.cio):                                        
    2/12/2020 14:37:03 QSWAT Workflow v1.5.2                                        
                                                                                    
                                            Average Plant Values (kg/ha)

  HRU       1 SUB   1 FRSE  Yld =  5775.3 BIOM =   8250.4
  HRU       2 SUB   1 FRSE  Yld =  5442.1 BIOM =   7774.5
  HRU       3 SUB   1 FRSD  Yld =  3708.2 BIOM =  10253.8
  HRU       4 SUB   1 FRSD  Yld =  3223.7 BIOM =   9405.7
  HRU       5 SUB   1 FRSD  Yld =  4245.2 BIOM =  11569.9
  HRU       6 SUB   1 FRSD  Yld =  3135.9 BIOM =   9182.7
  HRU       7 SUB   1 FRSD  Yld =  4205.0 BIOM =  11505.0
  HRU       8 SUB   1 FRSD  Yld =  3137.0 BIOM =   9187.0
  HRU       9 SUB   2 FRSE  Yld =  5813.5 BIOM =   8305.0
  HRU      10 SUB   2 FRSE  Yld =  5439.5 BIOM =   7770.7
  HRU      11 SUB   2 FRSD  Yld =  4023.5 BIOM =  11135.5
  HRU      12 SUB   2 FRSD  Yld =  3080.2 BIOM =   8917.7
  HRU      13 SUB   2 FRSD  Yld =  4247.6 BIOM =  11573.3
  HRU      14 SUB   2 FRSD  Yld =  2999.3 BIOM =   8530.6
  HRU      15 SUB   2 FRSD  Yld =  4237.0 BIOM =  11558.2
  HRU      16 SUB   2 FRSD  Yld =  3036.9 BIOM =   8710.6
  HRU      17 SUB   3 SWCH  Yld = 24831.0 BIOM =  41538.9
  HRU      18 SUB   3 FRSE  Yld =  4231.5 BIOM =   6044.9
  HRU      19 SUB   3 FRSE  Yld =  4243.5 BIOM =   6062.2
  HRU      20 SUB   3 FRSE  Yld =  5908.5 BIOM =   8440.8
  HRU      21 SUB   3 FRSE  Yld =  5435.5 BIOM =   7764.9
  HRU      22 SUB   3 FRSD  Yld =  4020.0 BIOM =  11128.1
  HRU      23 SUB   4 FRSE  Yld =  5858.9 BIOM =   8369.9
  HRU      24 SUB   4 FRSE  Yld =  5436.1 BIOM =   7765.9
  HRU      25 SUB   4 FRSE  Yld =  5414.7 BIOM =   7735.2
  HRU      26 SUB   5 SWCH  Yld = 24684.2 BIOM =  41269.9
  HRU      27 SUB   5 SWCH  Yld = 21043.9 BIOM =  35548.0
  HRU      28 SUB   5 FRSE  Yld =  5826.5 BIOM =   8323.6
  HRU      29 SUB   5 FRSE  Yld =  5445.9 BIOM =   7779.9
  HRU      30 SUB   5 FRSD  Yld =  4238.9 BIOM =  11560.9
  HRU      31 SUB   5 FRSD  Yld =  3284.4 BIOM =   9612.6
  HRU      32 SUB   5 FRSD  Yld =  4183.3 BIOM =  11456.7
  HRU      33 SUB   5 FRSD  Yld =  4002.4 BIOM =  11044.9
  HRU      34 SUB   6 FRSE  Yld =  5827.9 BIOM =   8325.5
  HRU      35 SUB   6 FRSD  Yld =  3101.7 BIOM =   9015.4
  HRU      36 SUB   6 FRSD  Yld =  4178.9 BIOM =  11447.1
  HRU      37 SUB   6 FRSD  Yld =  3117.7 BIOM =   9098.3
  HRU      38 SUB   6 FRSD  Yld =  4186.2 BIOM =  11463.2
  HRU      39 SUB   7 SWCH  Yld = 25367.0 BIOM =  42590.8
  HRU      40 SUB   7 SWCH  Yld = 22892.4 BIOM =  38415.3
  HRU      41 SUB   7 SWCH  Yld = 25307.2 BIOM =  42387.2
  HRU      42 SUB   7 SWCH  Yld = 17836.2 BIOM =  30016.3
  HRU      43 SUB   7 SWCH  Yld = 22329.7 BIOM =  37508.1
  HRU      44 SUB   7 FRSD  Yld =    36.6 BIOM =    102.3
  HRU      45 SUB   7 FRSD  Yld =  3267.7 BIOM =   9556.6
  HRU      46 SUB   7 FRSE  Yld =  5858.2 BIOM =   8368.9
  HRU      47 SUB   7 FRSE  Yld =  5443.9 BIOM =   7776.9
  HRU      48 SUB   7 FRSE  Yld =    52.8 BIOM =     75.4
  HRU      49 SUB   7 FRSE  Yld =  5908.5 BIOM =   8440.8
  HRU      50 SUB   7 FRSE  Yld =    52.8 BIOM =     75.4

    HRU STATISTICS

                AVE ANNUAL VALUES

   HRU  SUB  SOIL       AREAkm2    CN     AWCmm   USLE_LS  IRRmm  AUTONkh AUTOPkh  MIXEF PRECmm SURQGENmm   GWQmm    ETmm   SEDth  NO3kgh  ORGNkgh BIOMth   YLDth  SURQmm
      1   1   AUA        .380E-02   55.00  165.80    3.67    0.00    0.00    0.00    0.20 3485.48  493.89 1874.39 1048.80    1.90    2.03   16.45   12.72    8.90  493.89
      2   1   FAGASA     .647E-01   70.00   97.20   10.33    0.00    0.00    0.00    0.20 3485.48  862.58 1649.56  953.86   24.42    2.25   48.72   12.16    8.52  862.58
      3   1   AUA        .513E-03   66.00  165.80    3.99    0.00    0.00    0.00    0.20 3485.48  857.30 1470.73 1078.94    0.52    1.32    5.55   16.34   11.44  857.30
      4   1   FAGASA     .174E-02   77.00   97.20    5.78    0.00    0.00    0.00    0.20 3485.48 1202.81 1251.58  998.64    2.75    1.82   21.47   14.61   10.22 1202.81
      5   1   AUA        .103E-03   77.00  165.80    4.14    0.00    0.00    0.00    0.20 3485.48 1315.26 1067.35 1056.27    0.53    1.80    5.66   18.76   13.14 1315.26
      6   1   FAGASA     .144E-02   77.00   97.20    4.43    0.00    0.00    0.00    0.20 3485.48 1230.68 1203.67 1010.82    2.19    1.84   18.82   14.19    9.93 1230.68
      7   1   AUA        .513E-03   77.00  165.80    3.37    0.00    0.00    0.00    0.20 3485.48 1321.70 1054.31 1060.91    0.59    1.72    6.20   18.58   13.01 1321.70
      8   1   FAGASA     .185E-02   77.00   97.20    4.45    0.00    0.00    0.00    0.20 3485.48 1230.22 1204.33 1010.62    2.27    1.84   19.25   14.20    9.94 1230.22
      9   2   AUA        .410E-02   55.00  165.80    4.14    0.00    0.00    0.00    0.20 3485.48  491.95 1881.62 1046.51    2.16    2.09   17.75   12.79    8.95  491.95
     10   2   FAGASA     .660E-01   70.00   97.20   13.85    0.00    0.00    0.00    0.20 3485.48  862.57 1650.52  953.87   32.85    2.26   51.32   12.16    8.51  862.57
     11   2   AUA        .513E-03   66.00  165.80    4.14    0.00    0.00    0.00    0.20 3485.48  838.66 1529.46 1062.17    0.47    1.85    5.00   17.83   12.48  838.66
     12   2   FAGASA     .308E-03   77.00   97.20    3.77    0.00    0.00    0.00    0.20 3485.48 1243.88 1182.80 1016.91    1.57    1.84   15.15   13.91    9.74 1243.88
     13   2   AUA        .308E-03   77.00  165.80    4.23    0.00    0.00    0.00    0.20 3485.48 1314.53 1068.84 1055.76    0.67    1.80    6.78   18.78   13.14 1314.53
     14   2   FAGASA     .205E-03   77.00   97.20    3.11    0.00    0.00    0.00    0.20 3485.48 1255.85 1161.82 1023.26    1.28    1.83   13.23   13.51    9.46 1255.85
     15   2   AUA        .205E-03   77.00  165.80    3.99    0.00    0.00    0.00    0.20 3485.48 1316.61 1064.75 1057.18    0.59    1.78    6.12   18.73   13.11 1316.61
     16   2   FAGASA     .616E-03   77.00   97.20    3.42    0.00    0.00    0.00    0.20 3485.48 1250.42 1171.40 1020.33    1.60    1.83   15.44   13.70    9.59 1250.42
     17   3   AUA        .144E-02   59.00  165.80    7.94    0.00  136.08    0.00    0.20 3485.48  519.87 1833.64 1089.92    0.23   14.35    2.07   58.26   37.83  519.87
     18   3   AUA        .205E-03   55.00  165.80    0.07    0.00    0.00    0.00    0.20 3485.48  515.28 1725.79 1084.56    0.00    0.01    0.03    9.41    6.58  513.90
     19   3   AUA        .103E-03   55.00  165.80    0.38    0.00    0.00    0.00    0.20 3485.48  514.89 1727.74 1084.26    0.12    0.04    1.64    9.43    6.60  514.80
     20   3   AUA        .181E-01   55.00  165.80    7.91    0.00    0.00    0.00    0.20 3485.48  478.48 1923.83 1030.57    4.81    2.62   25.18   13.01    9.11  478.48
     21   3   FAGASA     .101E+00   70.00   97.20   19.08    0.00    0.00    0.00    0.20 3485.48  862.57 1651.53  953.87   47.71    2.26   53.76   12.15    8.50  862.57
     22   3   AUA        .123E-02   66.00  165.80    4.10    0.00    0.00    0.00    0.20 3485.48  838.86 1528.85 1062.40    0.52    1.84    5.49   17.81   12.47  838.86
     23   4   AUA        .770E-02   55.00  165.80    5.08    0.00    0.00    0.00    0.20 3485.48  488.26 1893.89 1042.14    2.83    2.20   20.41   12.89    9.02  488.27
     24   4   FAGASA     .107E+00   70.00   97.20   17.43    0.00    0.00    0.00    0.20 3485.48  862.59 1651.22  953.85   43.87    2.26   53.31   12.15    8.50  862.59
     25   4   AUA        .103E-03   70.00  165.80    2.85    0.00    0.00    0.00    0.20 3485.48 1021.86 1299.93 1070.09    2.44    1.01   21.51   11.98    8.39 1021.86
     26   5   AUA        .462E-02   59.00  165.80    9.15    0.00  135.77    0.00    0.20 3485.48  503.33 1857.42 1086.08    0.30   14.61    2.56   57.95   37.63  503.33
     27   5   FAGASA     .103E-02   72.00   97.20    9.20    0.00  132.73    0.00    0.20 3485.48  726.20 1748.90  999.53    0.50   15.14    3.85   50.00   32.30  726.20
     28   5   AUA        .934E-02   55.00  165.80    4.36    0.00    0.00    0.00    0.20 3485.48  491.14 1884.48 1045.49    2.50    2.11   19.24   12.82    8.97  491.14
     29   5   FAGASA     .205E-02   70.00   97.20   13.54    0.00    0.00    0.00    0.20 3485.48  862.54 1650.45  953.90   21.19    2.27   47.36   12.17    8.52  862.54
     30   5   AUA        .154E-02   66.00  165.80    9.39    0.00    0.00    0.00    0.20 3485.48  805.87 1595.45 1039.57    1.09    2.08    9.27   18.76   13.13  805.87
     31   5   FAGASA     .410E-03   77.00   97.20    7.99    0.00    0.00    0.00    0.20 3485.48 1134.98 1358.30  977.39    2.89    1.80   21.71   14.85   10.39 1134.98
     32   5   AUA        .113E-02   77.00  165.80    3.07    0.00    0.00    0.00    0.20 3485.48 1324.29 1048.59 1062.70    0.61    1.68    6.39   18.49   12.95 1324.29
     33   5   AUA        .718E-03   77.00  165.80    3.55    0.00    0.00    0.00    0.20 3485.48 1340.96 1005.22 1076.42    0.72    1.23    7.38   17.69   12.39 1340.96
     34   6   AUA        .236E-02   55.00  165.80    4.39    0.00    0.00    0.00    0.20 3485.48  491.07 1884.73 1045.40    2.13    2.12   17.61   12.82    8.97  491.07
     35   6   FAGASA     .103E-03   77.00   97.20    3.94    0.00    0.00    0.00    0.20 3485.48 1240.56 1188.22 1015.28    1.37    1.85   13.68   14.02    9.81 1240.56
     36   6   AUA        .718E-03   77.00  165.80    2.99    0.00    0.00    0.00    0.20 3485.48 1324.99 1047.14 1063.17    0.55    1.67    5.96   18.47   12.93 1324.99
     37   6   FAGASA     .103E-03   77.00   97.20    4.12    0.00    0.00    0.00    0.20 3485.48 1237.05 1193.91 1013.63    1.42    1.85   14.03   14.10    9.87 1237.05
     38   6   AUA        .308E-03   77.00  165.80    3.09    0.00    0.00    0.00    0.20 3485.48 1324.17 1048.94 1062.56    0.50    1.68    5.42   18.51   12.95 1324.17
     39   7   AUA        .308E-03   59.00  165.80    2.94    0.00  131.49    0.00    0.20 3485.48  592.14 1690.38 1107.99    0.06    7.68    0.53   59.53   38.66  592.14
     40   7   FAGASA     .205E-03   72.00   97.20    5.22    0.00  136.16    0.00    0.20 3485.48  891.22 1515.63 1038.47    0.23   15.19    2.06   53.97   34.97  891.22
     41   7   AUA        .318E-02   72.00  165.80    3.60    0.00  131.12    0.00    0.20 3485.48 1023.20 1313.77 1099.31    0.22   13.62    2.08   59.23   38.45 1023.20
     42   7   URBAN LA   .123E-02   72.00    1.50    1.82    0.00  220.44    0.00    0.20 3485.48 2379.67    0.00 1078.48    0.00   26.03    0.00   42.73   27.75 2379.67
     43   7   FAGASA     .164E-02   72.00   97.20    6.95    0.00  134.72    0.00    0.20 3485.48  824.06 1611.34 1025.40    0.44   15.02    3.58   52.75   34.15  824.06
     44   7   URBAN LA   .410E-03   83.00    1.50    2.31    0.00    0.00    0.00    0.20 3485.48 2350.41    0.00 1121.30    0.00    0.02    0.00    0.16    0.11 2350.41
     45   7   FAGASA     .513E-03   77.00   97.20    6.77    0.00    0.00    0.00    0.20 3485.48 1177.15 1296.31  989.93    2.66    1.82   20.83   14.80   10.36 1177.15
     46   7   AUA        .169E-01   55.00  165.80    5.06    0.00    0.00    0.00    0.20 3485.48  488.46 1893.39 1042.32    3.09    2.20   21.24   12.88    9.02  488.46
     47   7   FAGASA     .487E-01   70.00   97.20   11.66    0.00    0.00    0.00    0.20 3485.48  862.54 1650.06  953.91   26.66    2.26   49.52   12.17    8.52  862.54
     48   7   URBAN LA   .103E-03   77.00    1.50    2.75    0.00    0.00    0.00    0.20 3485.48 2296.14    0.00 1170.70    0.00    0.02    0.00    0.11    0.08 2296.14
     49   7   AUA        .277E-02   77.00  165.80    3.25    0.00    0.00    0.00    0.20 3485.48 1327.09 1060.79 1045.69    5.36    2.05   32.46   13.01    9.11 1327.09
     50   7   URBAN LA   .616E-03   77.00    1.50    2.36    0.00    0.00    0.00    0.20 3485.48 2296.15    0.00 1170.70    0.00    0.02    0.00    0.11    0.08 2296.15



                AVE MONTHLY BASIN VALUES
                   SNOW                      WATER               SED
  MON     RAIN     FALL   SURF Q    LAT Q    YIELD       ET    YIELD      PET
          (MM)     (MM)     (MM)     (MM)     (MM)     (MM)   (T/HA)     (MM)
    1   573.80     0.00   161.20   293.37   459.81    91.25    16.29   128.91
    2   248.15     0.00    54.61   130.99   191.51    83.90     2.32   125.50
    3   158.30     0.00    18.36    66.23    89.84   107.35     0.01   141.31
    4   352.75     0.00    45.88   169.93   217.84    89.36     0.02   122.56
    5   177.95     0.00    19.67    94.27   115.91    77.51     0.02   137.51
    6   251.80     0.00    62.05   112.79   176.68    70.81     0.15   113.37
    7   488.95     0.00   224.36   167.13   393.24    69.32     1.01   107.29
    8   292.00     0.00    76.14   148.65   228.35    73.10     0.68   123.66
    9   138.15     0.00    12.79    61.52    77.49    69.69     0.15   144.03
   10   162.50     0.00    28.87    67.03    97.58    63.53     0.72   170.07
   11   256.55     0.00    36.49   129.20   166.57    79.92     1.18   142.36
   12   380.10     0.00    87.03   182.71   271.95    96.06     7.86   146.63

     AVE ANNUAL BASIN STRESS DAYS
               WATER STRESS DAYS =     3.43
               TEMPERATURE STRESS DAYS =     0.12
               NITROGEN STRESS DAYS =     3.98
               PHOSPHORUS STRESS DAYS =     0.00
               AERATION STRESS DAYS =     0.01
1
    SWAT Dec 23 2016    VER 2016/Rev 664                                            

    General Input/Output section (file.cio):                                        
    2/12/2020 14:37:03 QSWAT Workflow v1.5.2                                        
                                                                                    
         AVE ANNUAL BASIN VALUES

              PRECIP =   3485.5 MM
              SNOW FALL =    0.00 MM
              SNOW MELT =     0.00 MM
              SUBLIMATION =     0.00 MM
              SURFACE RUNOFF Q =   828.92 MM
              LATERAL SOIL Q = 1626.30 MM
              TILE Q =     0.00 MM
              GROUNDWATER (SHAL AQ) Q =    33.01 MM
              GROUNDWATER (DEEP AQ) Q =     2.54 MM
              REVAP (SHAL AQ => SOIL/PLANTS) =   32.06 MM
              DEEP AQ RECHARGE =     2.45 MM
              TOTAL AQ RECHARGE =   48.93 MM
              TOTAL WATER YLD =  2490.77 MM
              PERCOLATION OUT OF SOIL =   49.92 MM
              ET =    971.9 MM
              PET =   1603.1MM
              TRANSMISSION LOSSES =     0.00 MM
              SEPTIC INFLOW =       0.00 MM
              TOTAL SEDIMENT LOADING =     30.64 T/HA
              TILE FROM IMPOUNDED WATER =     0.000 (MM)
              EVAPORATION FROM IMPOUNDED WATER =     0.000 (MM)
              SEEPAGE INTO SOIL FROM IMPOUNDED WATER =    0.000 (MM)
              OVERFLOW FROM IMPOUNDED WATER =    0.000 (MM)
1
    SWAT Dec 23 2016    VER 2016/Rev 664                                            

    General Input/Output section (file.cio):                                        
    2/12/2020 14:37:03 QSWAT Workflow v1.5.2                                        
                                                                                    
              AVE ANNUAL BASIN VALUES


              NUTRIENTS
                   ORGANIC N =    45.025 (KG/HA)
                   ORGANIC P =     5.506 (KG/HA)
                   NO3 YIELD (SQ) =     0.182 (KG/HA)
                   NO3 YIELD (LAT) =    2.425 (KG/HA)
                   NO3 YIELD (TILE) =    0.000 (KG/HA)
                   SOLP YIELD (TILE) =    0.000(KG/HA)
                   SOLP YIELD (SURF INLET RISER) =    0.000 (KG/HA)
                   SOL P YIELD =    0.046 (KG/HA)
                   NO3 LEACHED =     1.223 (KG/HA)
                   P LEACHED =     0.022 (KG/HA)
                   N UPTAKE =    13.551 (KG/HA)
                   P UPTAKE =    2.925 (KG/HA)
                   NO3 YIELD (GWQ) =     0.006 (KG/HA)
                   ACTIVE TO SOLUTION P FLOW =        -0.223 (KG/HA)
                   ACTIVE TO STABLE P FLOW =         0.230 (KG/HA)
                   N FERTILIZER APPLIED =     3.993 (KG/HA)
                   P FERTILIZER APPLIED =     0.000 (KG/HA)
                   N FIXATION =     0.000 (KG/HA)
                   DENITRIFICATION =     0.273 (KG/HA)
                   HUMUS MIN ON ACTIVE ORG N =    14.575 (KG/HA)
                   ACTIVE TO STABLE ORG N =    -7.515 (KG/HA)
                   HUMUS MIN ON ACTIVE ORG P =    2.494 (KG/HA)
                   MIN FROM FRESH ORG N =    2.887 (KG/HA)
                   MIN FROM FRESH ORG P =    0.525 (KG/HA)
                   NO3 IN RAINFALL =     0.000 (KG/HA)
                   INITIAL NO3 IN SOIL =      36.996 (KG/HA)
                   FINAL NO3 IN SOIL =         6.459 (KG/HA)
                   INITIAL ORG N IN SOIL =   12173.738 (KG/HA)
                   FINAL ORG N IN SOIL =     11660.531 (KG/HA)
                   INITIAL MIN P IN SOIL =    1901.516 (KG/HA)
                   FINAL MIN P IN SOIL =      1857.160 (KG/HA)
                   INITIAL ORG P IN SOIL =    1491.283 (KG/HA)
                   FINAL ORG P IN SOIL =    1425.031 (KG/HA)
                   NO3 IN FERT =     3.993 (KG/HA)
                   AMMONIA IN FERT =     0.000 (KG/HA)
                   ORG N IN FERT =     0.000 (KG/HA)
                   MINERAL P IN FERT =     0.000 (KG/HA)
                   ORG P IN FERT =     0.000 (KG/HA)
                   N REMOVED IN YIELD =    10.138 (KG/HA)
                   P REMOVED IN YIELD =     2.300 (KG/HA)
                   AMMONIA VOLATILIZATION =     0.000 (KG/HA)
                   AMMONIA NITRIFICATION =      0.000 (KG/HA)
                   NO3 EVAP-LAYER 2 TO 1 =    3.811

                   DIE-GRO P Q =           0.0 (No/M2)
                   DIE-GRO LP Q =           0.0 (No/M2)
                   DIE-GRO P SED =          0.0 (No/M2)
                   DIE-GRO LP SED =          0.0 (No/M2)
                   BACT P RUNOFF =          0.0 (No/M2)
                   BACT LP RUNOFF =          0.0 (No/M2)
                   BACT P SEDIMENT =          0.0 (No/M2)
                   BACT LP SEDIMENT =          0.0 (No/M2)
                   BACT P INCORP =          0.0 (No/M2)
                   BACT LP INCORP =          0.0 (No/M2)

                   NITRATE SEPTIC =         0.00 (kg/ha)
                   AMMONIA SEPTIC =         0.00 (kg/ha)
                   ORG N SEPTIC =         0.00 (kg/ha)
                   FRESH ORGN SEPTIC =         0.00 (kg/ha)
                   ORG P SEPTIC =         0.00 (kg/ha)
                   FRESH ORGP SEPTIC =         0.00 (kg/ha)
                   SOL P SEPTIC =         0.00 (kg/ha)
                   BOD SEPTIC =         0.00 (kg/ha)
