1
    SWAT Dec 23 2016    VER 2016/Rev 664                                                                 0/ 0/   0      0: 0: 0

    General Input/Output section (file.cio):                                        
    2/11/2020 16:57:02 QSWAT Workflow v1.5.2                                        
                                                                                    


       RCH      GIS   MON     AREAkm2  FLOW_INcms FLOW_OUTcms     EVAPcms    TLOSScms  SED_INtons SED_OUTtons SEDCONCmg/L   ORGN_INkg  ORGN_OUTkg   ORGP_INkg  ORGP_OUTkg    NO3_INkg   NO3_OUTkg    NH4_INkg   NH4_OUTkg    NO2_INkg   NO2_OUTkg   MINP_INkg  MINP_OUTkg   CHLA_INkg  CHLA_OUTkg   CBOD_INkg  CBOD_OUTkg  DISOX_INkg DISOX_OUTkg SOLPST_INmgSOLPST_OUTmg SORPST_INmgSORPST_OUTmg  REACTPSTmg    VOLPSTmg  SETTLPSTmgRESUSP_PSTmgDIFFUSEPSTmgREACBEDPSTmg   BURYPSTmg   BED_PSTmg BACTP_OUTctBACTLP_OUTct  CMETAL#1kg  CMETAL#2kg  CMETAL#3kg     TOT Nkg     TOT Pkg NO3ConcMg/l    WTMPdegc
REACH    1        0     1  0.3586E+00  0.6006E-01  0.6004E-01  0.1875E-04  0.0000E+00  0.3680E+03  0.3680E+03  0.9375E+03  0.8786E+03  0.8778E+03  0.1925E+03  0.1923E+03  0.1551E+02  0.1550E+02  0.0000E+00  0.5650E+00  0.0000E+00  0.0000E+00  0.3087E+00  0.5121E+00  0.8433E+01  0.8138E+01  0.5122E+05  0.5088E+05  0.1002E+04  0.4712E+03  0.0000E+00  0.0000E+00  0.0000E+00  0.0000E+00  0.0000E+00  0.0000E+00  0.0000E+00  0.0000E+00  0.0000E+00  0.0000E+00  0.0000E+00  0.0000E+00  0.0000E+00  0.0000E+00  0.0000E+00  0.0000E+00  0.0000E+00  0.8939E+03  0.1928E+03  0.0000E+00  0.0000E+00
REACH    2        0     1  0.3300E+00  0.5567E-01  0.5566E-01  0.1183E-04  0.0000E+00  0.3286E+03  0.3286E+03  0.9096E+03  0.7943E+03  0.7939E+03  0.1728E+03  0.1726E+03  0.1856E+02  0.1855E+02  0.0000E+00  0.2703E+00  0.0000E+00  0.0000E+00  0.5192E+00  0.6153E+00  0.8760E+01  0.8586E+01  0.5822E+05  0.5802E+05  0.9145E+03  0.3638E+03  0.0000E+00  0.0000E+00  0.0000E+00  0.0000E+00  0.0000E+00  0.0000E+00  0.0000E+00  0.0000E+00  0.0000E+00  0.0000E+00  0.0000E+00  0.0000E+00  0.0000E+00  0.0000E+00  0.0000E+00  0.0000E+00  0.0000E+00  0.8128E+03  0.1732E+03  0.0000E+00  0.0000E+00
REACH    3        0     1  0.4975E+00  0.7969E-01  0.7967E-01  0.1499E-04  0.0000E+00  0.4505E+03  0.4505E+03  0.9448E+03  0.1112E+04  0.1112E+04  0.2412E+03  0.2410E+03  0.2434E+02  0.2433E+02  0.0000E+00  0.4226E+00  0.0000E+00  0.0000E+00  0.9019E+00  0.1051E+01  0.1541E+02  0.1507E+02  0.9313E+05  0.9280E+05  0.1245E+04  0.5257E+03  0.0000E+00  0.0000E+00  0.0000E+00  0.0000E+00  0.0000E+00  0.0000E+00  0.0000E+00  0.0000E+00  0.0000E+00  0.0000E+00  0.0000E+00  0.0000E+00  0.0000E+00  0.0000E+00  0.0000E+00  0.0000E+00  0.0000E+00  0.1136E+04  0.2421E+03  0.0000E+00  0.0000E+00
REACH    4        0     1  0.3461E+00  0.5893E-01  0.5891E-01  0.1666E-04  0.0000E+00  0.3256E+03  0.3256E+03  0.8652E+03  0.8191E+03  0.8184E+03  0.1802E+03  0.1799E+03  0.1538E+02  0.1537E+02  0.0000E+00  0.4985E+00  0.0000E+00  0.0000E+00  0.3212E+00  0.5015E+00  0.8923E+01  0.8642E+01  0.4769E+05  0.4736E+05  0.9414E+03  0.4635E+03  0.0000E+00  0.0000E+00  0.0000E+00  0.0000E+00  0.0000E+00  0.0000E+00  0.0000E+00  0.0000E+00  0.0000E+00  0.0000E+00  0.0000E+00  0.0000E+00  0.0000E+00  0.0000E+00  0.0000E+00  0.0000E+00  0.0000E+00  0.8342E+03  0.1804E+03  0.0000E+00  0.0000E+00
REACH    5        0     1  0.2479E+00  0.4217E-01  0.4216E-01  0.1482E-04  0.0000E+00  0.2777E+03  0.2777E+03  0.1030E+04  0.6223E+03  0.6215E+03  0.1370E+03  0.1368E+03  0.1070E+02  0.1069E+02  0.0000E+00  0.4753E+00  0.0000E+00  0.0000E+00  0.2233E+00  0.3956E+00  0.6752E+01  0.6470E+01  0.3869E+05  0.3839E+05  0.6752E+03  0.3299E+03  0.0000E+00  0.0000E+00  0.0000E+00  0.0000E+00  0.0000E+00  0.0000E+00  0.0000E+00  0.0000E+00  0.0000E+00  0.0000E+00  0.0000E+00  0.0000E+00  0.0000E+00  0.0000E+00  0.0000E+00  0.0000E+00  0.0000E+00  0.6327E+03  0.1372E+03  0.0000E+00  0.0000E+00
REACH    6        0     1  0.2152E+00  0.3654E-01  0.3654E-01  0.4643E-05  0.0000E+00  0.2135E+03  0.2135E+03  0.8815E+03  0.5096E+03  0.5094E+03  0.1119E+03  0.1118E+03  0.1035E+02  0.1035E+02  0.0000E+00  0.1445E+00  0.0000E+00  0.0000E+00  0.2473E+00  0.2995E+00  0.5064E+01  0.4983E+01  0.2967E+05  0.2959E+05  0.6009E+03  0.2822E+03  0.0000E+00  0.0000E+00  0.0000E+00  0.0000E+00  0.0000E+00  0.0000E+00  0.0000E+00  0.0000E+00  0.0000E+00  0.0000E+00  0.0000E+00  0.0000E+00  0.0000E+00  0.0000E+00  0.0000E+00  0.0000E+00  0.0000E+00  0.5199E+03  0.1121E+03  0.0000E+00  0.0000E+00
REACH    7        0     1  0.8796E+00  0.1443E+00  0.1443E+00  0.1041E-04  0.0000E+00  0.8356E+03  0.9977E+02  0.1989E+03  0.2037E+04  0.2036E+04  0.4425E+03  0.4423E+03  0.4509E+02  0.4508E+02  0.6929E+00  0.1116E+01  0.0000E+00  0.4607E-04  0.1715E+01  0.1866E+01  0.2505E+02  0.2484E+02  0.1587E+06  0.1583E+06  0.1033E+04  0.9417E+03  0.0000E+00  0.0000E+00  0.0000E+00  0.0000E+00  0.0000E+00  0.0000E+00  0.0000E+00  0.0000E+00  0.0000E+00  0.0000E+00  0.0000E+00  0.0000E+00  0.0000E+00  0.0000E+00  0.0000E+00  0.0000E+00  0.0000E+00  0.2082E+04  0.4442E+03  0.0000E+00  0.0000E+00
REACH    8        0     1  0.1290E+01  0.2130E+00  0.2130E+00  0.1655E-04  0.0000E+00  0.5148E+03  0.7656E+02  0.1181E+03  0.3033E+04  0.3032E+04  0.6608E+03  0.6603E+03  0.6273E+02  0.6271E+02  0.1681E+01  0.2814E+01  0.4607E-04  0.4021E-03  0.2433E+01  0.2840E+01  0.3426E+02  0.3391E+02  0.2160E+06  0.2152E+06  0.1552E+04  0.1418E+04  0.0000E+00  0.0000E+00  0.0000E+00  0.0000E+00  0.0000E+00  0.0000E+00  0.0000E+00  0.0000E+00  0.0000E+00  0.0000E+00  0.0000E+00  0.0000E+00  0.0000E+00  0.0000E+00  0.0000E+00  0.0000E+00  0.0000E+00  0.3097E+04  0.6631E+03  0.0000E+00  0.0000E+00
REACH    9        0     1  0.1859E+01  0.3095E+00  0.3095E+00  0.4398E-04  0.0000E+00  0.6316E+03  0.3444E+03  0.2874E+03  0.4391E+04  0.4388E+04  0.9592E+03  0.9585E+03  0.8763E+02  0.8759E+02  0.3312E+01  0.5166E+01  0.4021E-03  0.2210E-02  0.3547E+01  0.4213E+01  0.4853E+02  0.4776E+02  0.2954E+06  0.2942E+06  0.2482E+04  0.2110E+04  0.0000E+00  0.0000E+00  0.0000E+00  0.0000E+00  0.0000E+00  0.0000E+00  0.0000E+00  0.0000E+00  0.0000E+00  0.0000E+00  0.0000E+00  0.0000E+00  0.0000E+00  0.0000E+00  0.0000E+00  0.0000E+00  0.0000E+00  0.4481E+04  0.9627E+03  0.0000E+00  0.0000E+00
REACH   10        0     1  0.2144E+01  0.3572E+00  0.3572E+00  0.1479E-04  0.0000E+00  0.6188E+03  0.2583E+03  0.2041E+03  0.5035E+04  0.5034E+04  0.1101E+04  0.1100E+04  0.1002E+03  0.1002E+03  0.5310E+01  0.6199E+01  0.2210E-02  0.2930E-02  0.4613E+01  0.4933E+01  0.5448E+02  0.5420E+02  0.3329E+06  0.3323E+06  0.2566E+04  0.2454E+04  0.0000E+00  0.0000E+00  0.0000E+00  0.0000E+00  0.0000E+00  0.0000E+00  0.0000E+00  0.0000E+00  0.0000E+00  0.0000E+00  0.0000E+00  0.0000E+00  0.0000E+00  0.0000E+00  0.0000E+00  0.0000E+00  0.0000E+00  0.5140E+04  0.1105E+04  0.0000E+00  0.0000E+00
REACH   11        0     1  0.2518E+01  0.4200E+00  0.4200E+00  0.1442E-04  0.0000E+00  0.6846E+03  0.2645E+03  0.1834E+03  0.5961E+04  0.5960E+04  0.1304E+04  0.1304E+04  0.1156E+03  0.1156E+03  0.6674E+01  0.7664E+01  0.2930E-02  0.3858E-02  0.5438E+01  0.5795E+01  0.6426E+02  0.6398E+02  0.3920E+06  0.3913E+06  0.3117E+04  0.2916E+04  0.0000E+00  0.0000E+00  0.0000E+00  0.0000E+00  0.0000E+00  0.0000E+00  0.0000E+00  0.0000E+00  0.0000E+00  0.0000E+00  0.0000E+00  0.0000E+00  0.0000E+00  0.0000E+00  0.0000E+00  0.0000E+00  0.0000E+00  0.6083E+04  0.1310E+04  0.0000E+00  0.0000E+00
REACH    1        0     2  0.3586E+00  0.2122E-01  0.2121E-01  0.1669E-04  0.0000E+00  0.1861E+03  0.1861E+03  0.4026E+03  0.2456E+03  0.2454E+03  0.5378E+02  0.5372E+02  0.4134E+01  0.4131E+01  0.0000E+00  0.1226E+00  0.0000E+00  0.0000E+00  0.5336E-01  0.9597E-01  0.3018E+01  0.2943E+01  0.2710E+05  0.2697E+05  0.3056E+03  0.1909E+03  0.0000E+00  0.0000E+00  0.0000E+00  0.0000E+00  0.0000E+00  0.0000E+00  0.0000E+00  0.0000E+00  0.0000E+00  0.0000E+00  0.0000E+00  0.0000E+00  0.0000E+00  0.0000E+00  0.0000E+00  0.0000E+00  0.0000E+00  0.2497E+03  0.5381E+02  0.0000E+00  0.0000E+00
REACH    2        0     2  0.3300E+00  0.1958E-01  0.1957E-01  0.1068E-04  0.0000E+00  0.1622E+03  0.1622E+03  0.3736E+03  0.2090E+03  0.2089E+03  0.4551E+02  0.4547E+02  0.1118E+02  0.1117E+02  0.0000E+00  0.7141E-01  0.0000E+00  0.0000E+00  0.8148E-01  0.1061E+00  0.2866E+01  0.2817E+01  0.2863E+05  0.2854E+05  0.2776E+03  0.1553E+03  0.0000E+00  0.0000E+00  0.0000E+00  0.0000E+00  0.0000E+00  0.0000E+00  0.0000E+00  0.0000E+00  0.0000E+00  0.0000E+00  0.0000E+00  0.0000E+00  0.0000E+00  0.0000E+00  0.0000E+00  0.0000E+00  0.0000E+00  0.2201E+03  0.4558E+02  0.0000E+00  0.0000E+00
REACH    3        0     2  0.4975E+00  0.3313E-01  0.3312E-01  0.1447E-04  0.0000E+00  0.2154E+03  0.2154E+03  0.3695E+03  0.2870E+03  0.2869E+03  0.6235E+02  0.6231E+02  0.1939E+03  0.1938E+03  0.0000E+00  0.1015E+00  0.0000E+00  0.0000E+00  0.1364E+00  0.1707E+00  0.8834E+01  0.8686E+01  0.4318E+05  0.4304E+05  0.4783E+03  0.2981E+03  0.0000E+00  0.0000E+00  0.0000E+00  0.0000E+00  0.0000E+00  0.0000E+00  0.0000E+00  0.0000E+00  0.0000E+00  0.0000E+00  0.0000E+00  0.0000E+00  0.0000E+00  0.0000E+00  0.0000E+00  0.0000E+00  0.0000E+00  0.4808E+03  0.6248E+02  0.0000E+00  0.0000E+00
REACH    4        0     2  0.3461E+00  0.2050E-01  0.2049E-01  0.1017E-04  0.0000E+00  0.1613E+03  0.1613E+03  0.3623E+03  0.2241E+03  0.2239E+03  0.4932E+02  0.4925E+02  0.4081E+01  0.4079E+01  0.0000E+00  0.1503E+00  0.0000E+00  0.0000E+00  0.5394E-01  0.1075E+00  0.3204E+01  0.3105E+01  0.2461E+05  0.2445E+05  0.2836E+03  0.1831E+03  0.0000E+00  0.0000E+00  0.0000E+00  0.0000E+00  0.0000E+00  0.0000E+00  0.0000E+00  0.0000E+00  0.0000E+00  0.0000E+00  0.0000E+00  0.0000E+00  0.0000E+00  0.0000E+00  0.0000E+00  0.0000E+00  0.0000E+00  0.2281E+03  0.4936E+02  0.0000E+00  0.0000E+00
REACH    5        0     2  0.2479E+00  0.1398E-01  0.1397E-01  0.8311E-05  0.0000E+00  0.1388E+03  0.1388E+03  0.4360E+03  0.1663E+03  0.1661E+03  0.3664E+02  0.3659E+02  0.2980E+01  0.2978E+01  0.0000E+00  0.1213E+00  0.0000E+00  0.0000E+00  0.3680E-01  0.8016E-01  0.2377E+01  0.2287E+01  0.2020E+05  0.2006E+05  0.1895E+03  0.1181E+03  0.0000E+00  0.0000E+00  0.0000E+00  0.0000E+00  0.0000E+00  0.0000E+00  0.0000E+00  0.0000E+00  0.0000E+00  0.0000E+00  0.0000E+00  0.0000E+00  0.0000E+00  0.0000E+00  0.0000E+00  0.0000E+00  0.0000E+00  0.1692E+03  0.3667E+02  0.0000E+00  0.0000E+00
REACH    6        0     2  0.2152E+00  0.1219E-01  0.1219E-01  0.2712E-05  0.0000E+00  0.1081E+03  0.1081E+03  0.3796E+03  0.1404E+03  0.1403E+03  0.3084E+02  0.3082E+02  0.2662E+01  0.2661E+01  0.0000E+00  0.3791E-01  0.0000E+00  0.0000E+00  0.4525E-01  0.5875E-01  0.1814E+01  0.1788E+01  0.1563E+05  0.1559E+05  0.1695E+03  0.1017E+03  0.0000E+00  0.0000E+00  0.0000E+00  0.0000E+00  0.0000E+00  0.0000E+00  0.0000E+00  0.0000E+00  0.0000E+00  0.0000E+00  0.0000E+00  0.0000E+00  0.0000E+00  0.0000E+00  0.0000E+00  0.0000E+00  0.0000E+00  0.1430E+03  0.3088E+02  0.0000E+00  0.0000E+00
REACH    7        0     2  0.8796E+00  0.5564E-01  0.5563E-01  0.7707E-05  0.0000E+00  0.4061E+03  0.2393E+02  0.1283E+03  0.5313E+03  0.5311E+03  0.1156E+03  0.1155E+03  0.2056E+03  0.2056E+03  0.1729E+00  0.3195E+00  0.0000E+00  0.0000E+00  0.2850E+00  0.3367E+00  0.1200E+02  0.1189E+02  0.7573E+05  0.7552E+05  0.4936E+03  0.4692E+03  0.0000E+00  0.0000E+00  0.0000E+00  0.0000E+00  0.0000E+00  0.0000E+00  0.0000E+00  0.0000E+00  0.0000E+00  0.0000E+00  0.0000E+00  0.0000E+00  0.0000E+00  0.0000E+00  0.0000E+00  0.0000E+00  0.0000E+00  0.7371E+03  0.1159E+03  0.0000E+00  0.0000E+00
REACH    8        0     2  0.1290E+01  0.7984E-01  0.7983E-01  0.9438E-05  0.0000E+00  0.2336E+03  0.2337E+02  0.8149E+02  0.8094E+03  0.8090E+03  0.1765E+03  0.1764E+03  0.2104E+03  0.2103E+03  0.4421E+00  0.7360E+00  0.0000E+00  0.3218E-04  0.4431E+00  0.5477E+00  0.1530E+02  0.1516E+02  0.1060E+06  0.1057E+06  0.7015E+03  0.6750E+03  0.0000E+00  0.0000E+00  0.0000E+00  0.0000E+00  0.0000E+00  0.0000E+00  0.0000E+00  0.0000E+00  0.0000E+00  0.0000E+00  0.0000E+00  0.0000E+00  0.0000E+00  0.0000E+00  0.0000E+00  0.0000E+00  0.0000E+00  0.1020E+04  0.1769E+03  0.0000E+00  0.0000E+00
REACH    9        0     2  0.1859E+01  0.1135E+00  0.1135E+00  0.4304E-04  0.0000E+00  0.2988E+03  0.9423E+02  0.1575E+03  0.1179E+04  0.1179E+04  0.2578E+03  0.2576E+03  0.2171E+03  0.2171E+03  0.8863E+00  0.1354E+01  0.3218E-04  0.4036E-03  0.6896E+00  0.8529E+00  0.2037E+02  0.2010E+02  0.1471E+06  0.1466E+06  0.1041E+04  0.9669E+03  0.0000E+00  0.0000E+00  0.0000E+00  0.0000E+00  0.0000E+00  0.0000E+00  0.0000E+00  0.0000E+00  0.0000E+00  0.0000E+00  0.0000E+00  0.0000E+00  0.0000E+00  0.0000E+00  0.0000E+00  0.0000E+00  0.0000E+00  0.1397E+04  0.2585E+03  0.0000E+00  0.0000E+00
REACH   10        0     2  0.2144E+01  0.1303E+00  0.1303E+00  0.1199E-04  0.0000E+00  0.2325E+03  0.5853E+02  0.1195E+03  0.1356E+04  0.1356E+04  0.2966E+03  0.2965E+03  0.2204E+03  0.2204E+03  0.1392E+01  0.1705E+01  0.4036E-03  0.5823E-03  0.9299E+00  0.1041E+01  0.2247E+02  0.2234E+02  0.1668E+06  0.1664E+06  0.1135E+04  0.1115E+04  0.0000E+00  0.0000E+00  0.0000E+00  0.0000E+00  0.0000E+00  0.0000E+00  0.0000E+00  0.0000E+00  0.0000E+00  0.0000E+00  0.0000E+00  0.0000E+00  0.0000E+00  0.0000E+00  0.0000E+00  0.0000E+00  0.0000E+00  0.1578E+04  0.2975E+03  0.0000E+00  0.0000E+00
REACH   11        0     2  0.2518E+01  0.1524E+00  0.1524E+00  0.1088E-04  0.0000E+00  0.2713E+03  0.6766E+02  0.1157E+03  0.1604E+04  0.1604E+04  0.3513E+03  0.3512E+03  0.2247E+03  0.2247E+03  0.1826E+01  0.2120E+01  0.5823E-03  0.8025E-03  0.1139E+01  0.1244E+01  0.2579E+02  0.2568E+02  0.1973E+06  0.1970E+06  0.1351E+04  0.1310E+04  0.0000E+00  0.0000E+00  0.0000E+00  0.0000E+00  0.0000E+00  0.0000E+00  0.0000E+00  0.0000E+00  0.0000E+00  0.0000E+00  0.0000E+00  0.0000E+00  0.0000E+00  0.0000E+00  0.0000E+00  0.0000E+00  0.0000E+00  0.1831E+04  0.3524E+03  0.0000E+00  0.0000E+00
REACH    1        0     3  0.3586E+00  0.6068E-02  0.6055E-02  0.1323E-04  0.0000E+00  0.1433E-06  0.1433E-06  0.1790E-04  0.1111E-05  0.0000E+00  0.3332E-05  0.1045E-06  0.5373E-01  0.5353E-01  0.0000E+00  0.6360E-02  0.0000E+00  0.0000E+00  0.1998E-05  0.0000E+00  0.3854E-12  0.0000E+00  0.0000E+00  0.0000E+00  0.1341E+03  0.1302E+03  0.0000E+00  0.0000E+00  0.0000E+00  0.0000E+00  0.0000E+00  0.0000E+00  0.0000E+00  0.0000E+00  0.0000E+00  0.0000E+00  0.0000E+00  0.0000E+00  0.0000E+00  0.0000E+00  0.0000E+00  0.0000E+00  0.0000E+00  0.5989E-01  0.1045E-06  0.0000E+00  0.0000E+00
REACH    2        0     3  0.3300E+00  0.5347E-02  0.5338E-02  0.8397E-05  0.0000E+00  0.1148E+01  0.1148E+01  0.2274E+02  0.1036E+01  0.1035E+01  0.2188E+00  0.2183E+00  0.1533E+02  0.1530E+02  0.0000E+00  0.4901E-02  0.0000E+00  0.0000E+00  0.2057E-03  0.5307E-03  0.7824E-02  0.6754E-02  0.2849E+03  0.2824E+03  0.1163E+03  0.6214E+02  0.0000E+00  0.0000E+00  0.0000E+00  0.0000E+00  0.0000E+00  0.0000E+00  0.0000E+00  0.0000E+00  0.0000E+00  0.0000E+00  0.0000E+00  0.0000E+00  0.0000E+00  0.0000E+00  0.0000E+00  0.0000E+00  0.0000E+00  0.1634E+02  0.2189E+00  0.0000E+00  0.0000E+00
REACH    3        0     3  0.4975E+00  0.1182E-01  0.1181E-01  0.1309E-04  0.0000E+00  0.3682E+01  0.3682E+01  0.4905E+02  0.3887E+01  0.3882E+01  0.8320E+00  0.8304E+00  0.1732E+02  0.1730E+02  0.0000E+00  0.9510E-02  0.0000E+00  0.0000E+00  0.1285E-02  0.2586E-02  0.5478E-01  0.4742E-01  0.1204E+04  0.1194E+04  0.2544E+03  0.1704E+03  0.0000E+00  0.0000E+00  0.0000E+00  0.0000E+00  0.0000E+00  0.0000E+00  0.0000E+00  0.0000E+00  0.0000E+00  0.0000E+00  0.0000E+00  0.0000E+00  0.0000E+00  0.0000E+00  0.0000E+00  0.0000E+00  0.0000E+00  0.2119E+02  0.8330E+00  0.0000E+00  0.0000E+00
REACH    4        0     3  0.3461E+00  0.5460E-02  0.5452E-02  0.7966E-05  0.0000E+00  0.3100E-07  0.3100E-07  0.6978E-05  0.1073E-05  0.3228E-07  0.3219E-05  0.2986E-06  0.3048E-01  0.3041E-01  0.0000E+00  0.3802E-02  0.0000E+00  0.0000E+00  0.1074E-05  0.9971E-07  0.1404E-17  0.0000E+00  0.0000E+00  0.0000E+00  0.1207E+03  0.1173E+03  0.0000E+00  0.0000E+00  0.0000E+00  0.0000E+00  0.0000E+00  0.0000E+00  0.0000E+00  0.0000E+00  0.0000E+00  0.0000E+00  0.0000E+00  0.0000E+00  0.0000E+00  0.0000E+00  0.0000E+00  0.0000E+00  0.0000E+00  0.3421E-01  0.3984E-06  0.0000E+00  0.0000E+00
REACH    5        0     3  0.2479E+00  0.3683E-02  0.3676E-02  0.6509E-05  0.0000E+00  0.1798E-06  0.1798E-06  0.1368E-03  0.7683E-06  0.2593E-06  0.2305E-05  0.9123E-06  0.1703E-01  0.1692E-01  0.0000E+00  0.3029E-02  0.0000E+00  0.0000E+00  0.1731E-04  0.4089E-04  0.1510E-07  0.0000E+00  0.0000E+00  0.0000E+00  0.8141E+02  0.7911E+02  0.0000E+00  0.0000E+00  0.0000E+00  0.0000E+00  0.0000E+00  0.0000E+00  0.0000E+00  0.0000E+00  0.0000E+00  0.0000E+00  0.0000E+00  0.0000E+00  0.0000E+00  0.0000E+00  0.0000E+00  0.0000E+00  0.0000E+00  0.1995E-01  0.4180E-04  0.0000E+00  0.0000E+00
REACH    6        0     3  0.2152E+00  0.3325E-02  0.3323E-02  0.2131E-05  0.0000E+00  0.3631E-06  0.3631E-06  0.1414E-03  0.6667E-06  0.2113E-07  0.2000E-05  0.7674E-06  0.1403E+01  0.1402E+01  0.0000E+00  0.9893E-03  0.0000E+00  0.0000E+00  0.6495E-04  0.7835E-04  0.1047E-06  0.0000E+00  0.0000E+00  0.0000E+00  0.7349E+02  0.7149E+02  0.0000E+00  0.0000E+00  0.0000E+00  0.0000E+00  0.0000E+00  0.0000E+00  0.0000E+00  0.0000E+00  0.0000E+00  0.0000E+00  0.0000E+00  0.0000E+00  0.0000E+00  0.0000E+00  0.0000E+00  0.0000E+00  0.0000E+00  0.1403E+01  0.7912E-04  0.0000E+00  0.0000E+00
REACH    7        0     3  0.8796E+00  0.1793E-01  0.1793E-01  0.6181E-05  0.0000E+00  0.4830E+01  0.5460E+01  0.9131E+02  0.4917E+01  0.4914E+01  0.1049E+01  0.1048E+01  0.3261E+02  0.3259E+02  0.1441E-01  0.1909E-01  0.0000E+00  0.5851E-05  0.3117E-02  0.3825E-02  0.5417E-01  0.5216E-01  0.1477E+04  0.1472E+04  0.2499E+03  0.2401E+03  0.0000E+00  0.0000E+00  0.0000E+00  0.0000E+00  0.0000E+00  0.0000E+00  0.0000E+00  0.0000E+00  0.0000E+00  0.0000E+00  0.0000E+00  0.0000E+00  0.0000E+00  0.0000E+00  0.0000E+00  0.0000E+00  0.0000E+00  0.3753E+02  0.1052E+01  0.0000E+00  0.0000E+00
REACH    8        0     3  0.1290E+01  0.2483E-01  0.2482E-01  0.7562E-05  0.0000E+00  0.5460E+01  0.5191E+01  0.6104E+02  0.4914E+01  0.4911E+01  0.1048E+01  0.1047E+01  0.3266E+02  0.3265E+02  0.2544E-01  0.3136E-01  0.5851E-05  0.4241E-04  0.3830E-02  0.4797E-02  0.5216E-01  0.5050E-01  0.1472E+04  0.1465E+04  0.3891E+03  0.3228E+03  0.0000E+00  0.0000E+00  0.0000E+00  0.0000E+00  0.0000E+00  0.0000E+00  0.0000E+00  0.0000E+00  0.0000E+00  0.0000E+00  0.0000E+00  0.0000E+00  0.0000E+00  0.0000E+00  0.0000E+00  0.0000E+00  0.0000E+00  0.3759E+02  0.1052E+01  0.0000E+00  0.0000E+00
REACH    9        0     3  0.1859E+01  0.3400E-01  0.3396E-01  0.3939E-04  0.0000E+00  0.5191E+01  0.1557E+02  0.1236E+03  0.4911E+01  0.4904E+01  0.1047E+01  0.1045E+01  0.3270E+02  0.3267E+02  0.3516E-01  0.5929E-01  0.4241E-04  0.1602E-03  0.4806E-02  0.7167E-02  0.5050E-01  0.4489E-01  0.1465E+04  0.1452E+04  0.5223E+03  0.4271E+03  0.0000E+00  0.0000E+00  0.0000E+00  0.0000E+00  0.0000E+00  0.0000E+00  0.0000E+00  0.0000E+00  0.0000E+00  0.0000E+00  0.0000E+00  0.0000E+00  0.0000E+00  0.0000E+00  0.0000E+00  0.0000E+00  0.0000E+00  0.3763E+02  0.1052E+01  0.0000E+00  0.0000E+00
REACH   10        0     3  0.2144E+01  0.3893E-01  0.3892E-01  0.9726E-05  0.0000E+00  0.1557E+02  0.1284E+02  0.9033E+02  0.4906E+01  0.4904E+01  0.1045E+01  0.1045E+01  0.3411E+02  0.3410E+02  0.6028E-01  0.6644E-01  0.1602E-03  0.2236E-03  0.7714E-02  0.8402E-02  0.4490E-01  0.4382E-01  0.1452E+04  0.1448E+04  0.5350E+03  0.4882E+03  0.0000E+00  0.0000E+00  0.0000E+00  0.0000E+00  0.0000E+00  0.0000E+00  0.0000E+00  0.0000E+00  0.0000E+00  0.0000E+00  0.0000E+00  0.0000E+00  0.0000E+00  0.0000E+00  0.0000E+00  0.0000E+00  0.0000E+00  0.3907E+02  0.1053E+01  0.0000E+00  0.0000E+00
REACH   11        0     3  0.2518E+01  0.4528E-01  0.4528E-01  0.8864E-05  0.0000E+00  0.1285E+02  0.1402E+02  0.8488E+02  0.4923E+01  0.4922E+01  0.1049E+01  0.1048E+01  0.3426E+02  0.3425E+02  0.6947E-01  0.7503E-01  0.2236E-03  0.3012E-03  0.8461E-02  0.9068E-02  0.4392E-01  0.4310E-01  0.1449E+04  0.1446E+04  0.6266E+03  0.5658E+03  0.0000E+00  0.0000E+00  0.0000E+00  0.0000E+00  0.0000E+00  0.0000E+00  0.0000E+00  0.0000E+00  0.0000E+00  0.0000E+00  0.0000E+00  0.0000E+00  0.0000E+00  0.0000E+00  0.0000E+00  0.0000E+00  0.0000E+00  0.3925E+02  0.1057E+01  0.0000E+00  0.0000E+00
REACH    1        0     4  0.3586E+00  0.1801E-01  0.1800E-01  0.1368E-04  0.0000E+00  0.5903E+00  0.5903E+00  0.1257E+01  0.1263E+01  0.1262E+01  0.2717E+00  0.2714E+00  0.1115E+01  0.1115E+01  0.0000E+00  0.6909E-02  0.0000E+00  0.0000E+00  0.3640E-01  0.3677E-01  0.6289E-02  0.6102E-02  0.8980E+02  0.8936E+02  0.3440E+03  0.2745E+03  0.0000E+00  0.0000E+00  0.0000E+00  0.0000E+00  0.0000E+00  0.0000E+00  0.0000E+00  0.0000E+00  0.0000E+00  0.0000E+00  0.0000E+00  0.0000E+00  0.0000E+00  0.0000E+00  0.0000E+00  0.0000E+00  0.0000E+00  0.2384E+01  0.3082E+00  0.0000E+00  0.0000E+00
REACH    2        0     4  0.3300E+00  0.1687E-01  0.1686E-01  0.8749E-05  0.0000E+00  0.2241E+02  0.2241E+02  0.5831E+02  0.2351E+02  0.2350E+02  0.4843E+01  0.4840E+01  0.5080E+01  0.5079E+01  0.0000E+00  0.1193E-01  0.0000E+00  0.0000E+00  0.5205E-01  0.5488E-01  0.4660E+00  0.4567E+00  0.9489E+04  0.9458E+04  0.2918E+03  0.6180E+02  0.0000E+00  0.0000E+00  0.0000E+00  0.0000E+00  0.0000E+00  0.0000E+00  0.0000E+00  0.0000E+00  0.0000E+00  0.0000E+00  0.0000E+00  0.0000E+00  0.0000E+00  0.0000E+00  0.0000E+00  0.0000E+00  0.0000E+00  0.2859E+02  0.4894E+01  0.0000E+00  0.0000E+00
REACH    3        0     4  0.4975E+00  0.2474E-01  0.2473E-01  0.1290E-04  0.0000E+00  0.5166E+02  0.5166E+02  0.1071E+03  0.5710E+02  0.5707E+02  0.1191E+02  0.1190E+02  0.1372E+01  0.1372E+01  0.0000E+00  0.2578E-01  0.0000E+00  0.0000E+00  0.1112E+00  0.1181E+00  0.1731E+01  0.1691E+01  0.2514E+05  0.2506E+05  0.3835E+03  0.1130E+03  0.0000E+00  0.0000E+00  0.0000E+00  0.0000E+00  0.0000E+00  0.0000E+00  0.0000E+00  0.0000E+00  0.0000E+00  0.0000E+00  0.0000E+00  0.0000E+00  0.0000E+00  0.0000E+00  0.0000E+00  0.0000E+00  0.0000E+00  0.5847E+02  0.1202E+02  0.0000E+00  0.0000E+00
REACH    4        0     4  0.3461E+00  0.1771E-01  0.1770E-01  0.1176E-04  0.0000E+00  0.5540E+00  0.5540E+00  0.1194E+01  0.1022E+01  0.1021E+01  0.2217E+00  0.2212E+00  0.1016E+01  0.1015E+01  0.0000E+00  0.4959E-02  0.0000E+00  0.0000E+00  0.3010E-01  0.3049E-01  0.5606E-02  0.5384E-02  0.7765E+02  0.7698E+02  0.3396E+03  0.2794E+03  0.0000E+00  0.0000E+00  0.0000E+00  0.0000E+00  0.0000E+00  0.0000E+00  0.0000E+00  0.0000E+00  0.0000E+00  0.0000E+00  0.0000E+00  0.0000E+00  0.0000E+00  0.0000E+00  0.0000E+00  0.0000E+00  0.0000E+00  0.2041E+01  0.2517E+00  0.0000E+00  0.0000E+00
REACH    5        0     4  0.2479E+00  0.1305E-01  0.1304E-01  0.9728E-05  0.0000E+00  0.4170E+00  0.4170E+00  0.1251E+01  0.6809E+00  0.6799E+00  0.1477E+00  0.1474E+00  0.7073E+00  0.7070E+00  0.0000E+00  0.3995E-02  0.0000E+00  0.0000E+00  0.1923E-01  0.1954E-01  0.3834E-02  0.3648E-02  0.5675E+02  0.5621E+02  0.2515E+03  0.2058E+03  0.0000E+00  0.0000E+00  0.0000E+00  0.0000E+00  0.0000E+00  0.0000E+00  0.0000E+00  0.0000E+00  0.0000E+00  0.0000E+00  0.0000E+00  0.0000E+00  0.0000E+00  0.0000E+00  0.0000E+00  0.0000E+00  0.0000E+00  0.1391E+01  0.1669E+00  0.0000E+00  0.0000E+00
REACH    6        0     4  0.2152E+00  0.1129E-01  0.1129E-01  0.3166E-05  0.0000E+00  0.3440E+00  0.3440E+00  0.1154E+01  0.7547E+00  0.7543E+00  0.1623E+00  0.1621E+00  0.7267E+00  0.7266E+00  0.0000E+00  0.1355E-02  0.0000E+00  0.0000E+00  0.2516E-01  0.2529E-01  0.4207E-02  0.4131E-02  0.4777E+02  0.4760E+02  0.2179E+03  0.1776E+03  0.0000E+00  0.0000E+00  0.0000E+00  0.0000E+00  0.0000E+00  0.0000E+00  0.0000E+00  0.0000E+00  0.0000E+00  0.0000E+00  0.0000E+00  0.0000E+00  0.0000E+00  0.0000E+00  0.0000E+00  0.0000E+00  0.0000E+00  0.1482E+01  0.1874E+00  0.0000E+00  0.0000E+00
REACH    7        0     4  0.8796E+00  0.4438E-01  0.4437E-01  0.8519E-05  0.0000E+00  0.7415E+02  0.2696E+02  0.8751E+02  0.8070E+02  0.8068E+02  0.1677E+02  0.1676E+02  0.6597E+01  0.6596E+01  0.3771E-01  0.5774E-01  0.0000E+00  0.2282E-04  0.1773E+00  0.1833E+00  0.2148E+01  0.2130E+01  0.3452E+05  0.3445E+05  0.2297E+03  0.1861E+03  0.0000E+00  0.0000E+00  0.0000E+00  0.0000E+00  0.0000E+00  0.0000E+00  0.0000E+00  0.0000E+00  0.0000E+00  0.0000E+00  0.0000E+00  0.0000E+00  0.0000E+00  0.0000E+00  0.0000E+00  0.0000E+00  0.0000E+00  0.8733E+02  0.1695E+02  0.0000E+00  0.0000E+00
REACH    8        0     4  0.1290E+01  0.6508E-01  0.6507E-01  0.1029E-04  0.0000E+00  0.2761E+02  0.2040E+02  0.5722E+02  0.8207E+02  0.8203E+02  0.1706E+02  0.1705E+02  0.7854E+01  0.7852E+01  0.6465E-01  0.9916E-01  0.2282E-04  0.7020E-04  0.2281E+00  0.2388E+00  0.2137E+01  0.2114E+01  0.3455E+05  0.3442E+05  0.5139E+03  0.2794E+03  0.0000E+00  0.0000E+00  0.0000E+00  0.0000E+00  0.0000E+00  0.0000E+00  0.0000E+00  0.0000E+00  0.0000E+00  0.0000E+00  0.0000E+00  0.0000E+00  0.0000E+00  0.0000E+00  0.0000E+00  0.0000E+00  0.0000E+00  0.8998E+02  0.1729E+02  0.0000E+00  0.0000E+00
REACH    9        0     4  0.1859E+01  0.9439E-01  0.9435E-01  0.4011E-04  0.0000E+00  0.2133E+02  0.1008E+03  0.1225E+03  0.8369E+02  0.8365E+02  0.1741E+02  0.1740E+02  0.9499E+01  0.9497E+01  0.1041E+00  0.1576E+00  0.7020E-04  0.2147E-03  0.2886E+00  0.3012E+00  0.2124E+01  0.2087E+01  0.3456E+05  0.3441E+05  0.7814E+03  0.4145E+03  0.0000E+00  0.0000E+00  0.0000E+00  0.0000E+00  0.0000E+00  0.0000E+00  0.0000E+00  0.0000E+00  0.0000E+00  0.0000E+00  0.0000E+00  0.0000E+00  0.0000E+00  0.0000E+00  0.0000E+00  0.0000E+00  0.0000E+00  0.9330E+02  0.1770E+02  0.0000E+00  0.0000E+00
REACH   10        0     4  0.2144E+01  0.1093E+00  0.1093E+00  0.1154E-04  0.0000E+00  0.1013E+03  0.8981E+02  0.9828E+02  0.8470E+02  0.8468E+02  0.1762E+02  0.1762E+02  0.1037E+02  0.1037E+02  0.1590E+00  0.1743E+00  0.2147E-03  0.3203E-03  0.3447E+00  0.3486E+00  0.2098E+01  0.2090E+01  0.3451E+05  0.3446E+05  0.6565E+03  0.4829E+03  0.0000E+00  0.0000E+00  0.0000E+00  0.0000E+00  0.0000E+00  0.0000E+00  0.0000E+00  0.0000E+00  0.0000E+00  0.0000E+00  0.0000E+00  0.0000E+00  0.0000E+00  0.0000E+00  0.0000E+00  0.0000E+00  0.0000E+00  0.9523E+02  0.1797E+02  0.0000E+00  0.0000E+00
REACH   11        0     4  0.2518E+01  0.1289E+00  0.1289E+00  0.1057E-04  0.0000E+00  0.9080E+02  0.7563E+02  0.8305E+02  0.8634E+02  0.8632E+02  0.1798E+02  0.1797E+02  0.1147E+02  0.1147E+02  0.1783E+00  0.1967E+00  0.3203E-03  0.4319E-03  0.3791E+00  0.3842E+00  0.2117E+01  0.2108E+01  0.3473E+05  0.3467E+05  0.8064E+03  0.5773E+03  0.0000E+00  0.0000E+00  0.0000E+00  0.0000E+00  0.0000E+00  0.0000E+00  0.0000E+00  0.0000E+00  0.0000E+00  0.0000E+00  0.0000E+00  0.0000E+00  0.0000E+00  0.0000E+00  0.0000E+00  0.0000E+00  0.0000E+00  0.9799E+02  0.1836E+02  0.0000E+00  0.0000E+00
REACH    1        0     5  0.3586E+00  0.9616E-02  0.9600E-02  0.1547E-04  0.0000E+00  0.3864E-01  0.3864E-01  0.2063E+00  0.8898E-01  0.8889E-01  0.1911E-01  0.1908E-01  0.1782E+01  0.1780E+01  0.0000E+00  0.6488E-02  0.0000E+00  0.0000E+00  0.2892E-02  0.3028E-02  0.4658E-04  0.4344E-04  0.1886E+01  0.1873E+01  0.2124E+03  0.2048E+03  0.0000E+00  0.0000E+00  0.0000E+00  0.0000E+00  0.0000E+00  0.0000E+00  0.0000E+00  0.0000E+00  0.0000E+00  0.0000E+00  0.0000E+00  0.0000E+00  0.0000E+00  0.0000E+00  0.0000E+00  0.0000E+00  0.0000E+00  0.1876E+01  0.2211E-01  0.0000E+00  0.0000E+00
REACH    2        0     5  0.3300E+00  0.7748E-02  0.7739E-02  0.9700E-05  0.0000E+00  0.2152E+01  0.2152E+01  0.2062E+02  0.1846E+01  0.1845E+01  0.3786E+00  0.3783E+00  0.1429E+01  0.1427E+01  0.0000E+00  0.4842E-02  0.0000E+00  0.0000E+00  0.3474E-02  0.3887E-02  0.2281E-01  0.2158E-01  0.7718E+03  0.7684E+03  0.1669E+03  0.8983E+02  0.0000E+00  0.0000E+00  0.0000E+00  0.0000E+00  0.0000E+00  0.0000E+00  0.0000E+00  0.0000E+00  0.0000E+00  0.0000E+00  0.0000E+00  0.0000E+00  0.0000E+00  0.0000E+00  0.0000E+00  0.0000E+00  0.0000E+00  0.3277E+01  0.3821E+00  0.0000E+00  0.0000E+00
REACH    3        0     5  0.4975E+00  0.1150E-01  0.1148E-01  0.1449E-04  0.0000E+00  0.6310E+01  0.6310E+01  0.5420E+02  0.6380E+01  0.6375E+01  0.1335E+01  0.1333E+01  0.1715E+01  0.1713E+01  0.0000E+00  0.1019E-01  0.0000E+00  0.0000E+00  0.8921E-02  0.1055E-01  0.1622E+00  0.1502E+00  0.3073E+04  0.3053E+04  0.2395E+03  0.1301E+03  0.0000E+00  0.0000E+00  0.0000E+00  0.0000E+00  0.0000E+00  0.0000E+00  0.0000E+00  0.0000E+00  0.0000E+00  0.0000E+00  0.0000E+00  0.0000E+00  0.0000E+00  0.0000E+00  0.0000E+00  0.0000E+00  0.0000E+00  0.8098E+01  0.1344E+01  0.0000E+00  0.0000E+00
REACH    4        0     5  0.3461E+00  0.9639E-02  0.9630E-02  0.9396E-05  0.0000E+00  0.4384E-01  0.4384E-01  0.2478E+00  0.8092E-01  0.8086E-01  0.1756E-01  0.1754E-01  0.1815E+01  0.1813E+01  0.0000E+00  0.3922E-02  0.0000E+00  0.0000E+00  0.2639E-02  0.2668E-02  0.6826E-04  0.6532E-04  0.2296E+01  0.2283E+01  0.2126E+03  0.2048E+03  0.0000E+00  0.0000E+00  0.0000E+00  0.0000E+00  0.0000E+00  0.0000E+00  0.0000E+00  0.0000E+00  0.0000E+00  0.0000E+00  0.0000E+00  0.0000E+00  0.0000E+00  0.0000E+00  0.0000E+00  0.0000E+00  0.0000E+00  0.1898E+01  0.2020E-01  0.0000E+00  0.0000E+00
REACH    5        0     5  0.2479E+00  0.7173E-02  0.7165E-02  0.7706E-05  0.0000E+00  0.2843E-01  0.2843E-01  0.2258E+00  0.4578E-01  0.4575E-01  0.9952E-02  0.9937E-02  0.1321E+01  0.1320E+01  0.0000E+00  0.3144E-02  0.0000E+00  0.0000E+00  0.1555E-02  0.1617E-02  0.1196E-03  0.1139E-03  0.1783E+01  0.1774E+01  0.1585E+03  0.1523E+03  0.0000E+00  0.0000E+00  0.0000E+00  0.0000E+00  0.0000E+00  0.0000E+00  0.0000E+00  0.0000E+00  0.0000E+00  0.0000E+00  0.0000E+00  0.0000E+00  0.0000E+00  0.0000E+00  0.0000E+00  0.0000E+00  0.0000E+00  0.1369E+01  0.1155E-01  0.0000E+00  0.0000E+00
REACH    6        0     5  0.2152E+00  0.5922E-02  0.5919E-02  0.2515E-05  0.0000E+00  0.2080E-01  0.2080E-01  0.1880E+00  0.3768E-01  0.3767E-01  0.8224E-02  0.8219E-02  0.1097E+01  0.1097E+01  0.0000E+00  0.1021E-02  0.0000E+00  0.0000E+00  0.1737E-02  0.1773E-02  0.1209E-03  0.1187E-03  0.1358E+01  0.1356E+01  0.1309E+03  0.1260E+03  0.0000E+00  0.0000E+00  0.0000E+00  0.0000E+00  0.0000E+00  0.0000E+00  0.0000E+00  0.0000E+00  0.0000E+00  0.0000E+00  0.0000E+00  0.0000E+00  0.0000E+00  0.0000E+00  0.0000E+00  0.0000E+00  0.0000E+00  0.1136E+01  0.9992E-02  0.0000E+00  0.0000E+00
REACH    7        0     5  0.8796E+00  0.2078E-01  0.2077E-01  0.7021E-05  0.0000E+00  0.8466E+01  0.8844E+01  0.8842E+02  0.8227E+01  0.8224E+01  0.1713E+01  0.1712E+01  0.3420E+01  0.3419E+01  0.1503E-01  0.1993E-01  0.0000E+00  0.1718E-04  0.1482E-01  0.1570E-01  0.1718E+00  0.1687E+00  0.3822E+04  0.3813E+04  0.2543E+03  0.2363E+03  0.0000E+00  0.0000E+00  0.0000E+00  0.0000E+00  0.0000E+00  0.0000E+00  0.0000E+00  0.0000E+00  0.0000E+00  0.0000E+00  0.0000E+00  0.0000E+00  0.0000E+00  0.0000E+00  0.0000E+00  0.0000E+00  0.0000E+00  0.1166E+02  0.1728E+01  0.0000E+00  0.0000E+00
REACH    8        0     5  0.1290E+01  0.3187E-01  0.3186E-01  0.8589E-05  0.0000E+00  0.8887E+01  0.9441E+01  0.6418E+02  0.8321E+01  0.8318E+01  0.1733E+01  0.1732E+01  0.5465E+01  0.5464E+01  0.2642E-01  0.3267E-01  0.1718E-04  0.5566E-04  0.2007E-01  0.2129E-01  0.1687E+00  0.1661E+00  0.3815E+04  0.3803E+04  0.4742E+03  0.3771E+03  0.0000E+00  0.0000E+00  0.0000E+00  0.0000E+00  0.0000E+00  0.0000E+00  0.0000E+00  0.0000E+00  0.0000E+00  0.0000E+00  0.0000E+00  0.0000E+00  0.0000E+00  0.0000E+00  0.0000E+00  0.0000E+00  0.0000E+00  0.1381E+02  0.1753E+01  0.0000E+00  0.0000E+00
REACH    9        0     5  0.1859E+01  0.4781E-01  0.4777E-01  0.4560E-04  0.0000E+00  0.9516E+01  0.2939E+02  0.1224E+03  0.8448E+01  0.8440E+01  0.1760E+01  0.1758E+01  0.8442E+01  0.8436E+01  0.3659E-01  0.6165E-01  0.5566E-04  0.1929E-03  0.2569E-01  0.2906E-01  0.1665E+00  0.1580E+00  0.3808E+04  0.3783E+04  0.7213E+03  0.5900E+03  0.0000E+00  0.0000E+00  0.0000E+00  0.0000E+00  0.0000E+00  0.0000E+00  0.0000E+00  0.0000E+00  0.0000E+00  0.0000E+00  0.0000E+00  0.0000E+00  0.0000E+00  0.0000E+00  0.0000E+00  0.0000E+00  0.0000E+00  0.1694E+02  0.1787E+01  0.0000E+00  0.0000E+00
REACH   10        0     5  0.2144E+01  0.5543E-01  0.5542E-01  0.1129E-04  0.0000E+00  0.2943E+02  0.2493E+02  0.9197E+02  0.8511E+01  0.8509E+01  0.1773E+01  0.1773E+01  0.9800E+01  0.9798E+01  0.6267E-01  0.6918E-01  0.1929E-03  0.2890E-03  0.3299E-01  0.3406E-01  0.1589E+00  0.1572E+00  0.3790E+04  0.3782E+04  0.7534E+03  0.6927E+03  0.0000E+00  0.0000E+00  0.0000E+00  0.0000E+00  0.0000E+00  0.0000E+00  0.0000E+00  0.0000E+00  0.0000E+00  0.0000E+00  0.0000E+00  0.0000E+00  0.0000E+00  0.0000E+00  0.0000E+00  0.0000E+00  0.0000E+00  0.1838E+02  0.1807E+01  0.0000E+00  0.0000E+00
REACH   11        0     5  0.2518E+01  0.6586E-01  0.6585E-01  0.1028E-04  0.0000E+00  0.2504E+02  0.2859E+02  0.8964E+02  0.8661E+01  0.8660E+01  0.1806E+01  0.1805E+01  0.1167E+02  0.1167E+02  0.7232E-01  0.7814E-01  0.2890E-03  0.3823E-03  0.3666E-01  0.3759E-01  0.1598E+00  0.1584E+00  0.3809E+04  0.3802E+04  0.9156E+03  0.8365E+03  0.0000E+00  0.0000E+00  0.0000E+00  0.0000E+00  0.0000E+00  0.0000E+00  0.0000E+00  0.0000E+00  0.0000E+00  0.0000E+00  0.0000E+00  0.0000E+00  0.0000E+00  0.0000E+00  0.0000E+00  0.0000E+00  0.0000E+00  0.2041E+02  0.1843E+01  0.0000E+00  0.0000E+00
REACH    1        0     6  0.3586E+00  0.3035E-01  0.3034E-01  0.1335E-04  0.0000E+00  0.6132E+01  0.6132E+01  0.4934E+01  0.1379E+02  0.1378E+02  0.2965E+01  0.2962E+01  0.6741E+01  0.6738E+01  0.0000E+00  0.1421E-01  0.0000E+00  0.0000E+00  0.1711E+00  0.1741E+00  0.2587E+00  0.2525E+00  0.1911E+04  0.1900E+04  0.3684E+03  0.2252E+03  0.0000E+00  0.0000E+00  0.0000E+00  0.0000E+00  0.0000E+00  0.0000E+00  0.0000E+00  0.0000E+00  0.0000E+00  0.0000E+00  0.0000E+00  0.0000E+00  0.0000E+00  0.0000E+00  0.0000E+00  0.0000E+00  0.0000E+00  0.2054E+02  0.3136E+01  0.0000E+00  0.0000E+00
REACH    2        0     6  0.3300E+00  0.2771E-01  0.2771E-01  0.8499E-05  0.0000E+00  0.4471E+02  0.4471E+02  0.5847E+02  0.4723E+02  0.4721E+02  0.9641E+01  0.9634E+01  0.6701E+01  0.6698E+01  0.0000E+00  0.2239E-01  0.0000E+00  0.0000E+00  0.2065E+00  0.2129E+00  0.1135E+01  0.1115E+01  0.2017E+05  0.2009E+05  0.3231E+03  0.9417E+02  0.0000E+00  0.0000E+00  0.0000E+00  0.0000E+00  0.0000E+00  0.0000E+00  0.0000E+00  0.0000E+00  0.0000E+00  0.0000E+00  0.0000E+00  0.0000E+00  0.0000E+00  0.0000E+00  0.0000E+00  0.0000E+00  0.0000E+00  0.5393E+02  0.9847E+01  0.0000E+00  0.0000E+00
REACH    3        0     6  0.4975E+00  0.4106E-01  0.4104E-01  0.1255E-04  0.0000E+00  0.9568E+02  0.9568E+02  0.1090E+03  0.9886E+02  0.9881E+02  0.2036E+02  0.2034E+02  0.7656E+01  0.7652E+01  0.0000E+00  0.4656E-01  0.0000E+00  0.0000E+00  0.3694E+00  0.3833E+00  0.3022E+01  0.2970E+01  0.4498E+05  0.4480E+05  0.4308E+03  0.1510E+03  0.0000E+00  0.0000E+00  0.0000E+00  0.0000E+00  0.0000E+00  0.0000E+00  0.0000E+00  0.0000E+00  0.0000E+00  0.0000E+00  0.0000E+00  0.0000E+00  0.0000E+00  0.0000E+00  0.0000E+00  0.0000E+00  0.0000E+00  0.1065E+03  0.2073E+02  0.0000E+00  0.0000E+00
REACH    4        0     6  0.3461E+00  0.2924E-01  0.2924E-01  0.8160E-05  0.0000E+00  0.5771E+01  0.5771E+01  0.5396E+01  0.1063E+02  0.1062E+02  0.2307E+01  0.2305E+01  0.5922E+01  0.5920E+01  0.0000E+00  0.8559E-02  0.0000E+00  0.0000E+00  0.1508E+00  0.1525E+00  0.2254E+00  0.2215E+00  0.1587E+04  0.1580E+04  0.3342E+03  0.2074E+03  0.0000E+00  0.0000E+00  0.0000E+00  0.0000E+00  0.0000E+00  0.0000E+00  0.0000E+00  0.0000E+00  0.0000E+00  0.0000E+00  0.0000E+00  0.0000E+00  0.0000E+00  0.0000E+00  0.0000E+00  0.0000E+00  0.0000E+00  0.1655E+02  0.2457E+01  0.0000E+00  0.0000E+00
REACH    5        0     6  0.2479E+00  0.2124E-01  0.2123E-01  0.6794E-05  0.0000E+00  0.4123E+01  0.4123E+01  0.5066E+01  0.6736E+01  0.6732E+01  0.1463E+01  0.1461E+01  0.4528E+01  0.4527E+01  0.0000E+00  0.6565E-02  0.0000E+00  0.0000E+00  0.9834E-01  0.9963E-01  0.1355E+00  0.1326E+00  0.1099E+04  0.1094E+04  0.2573E+03  0.1601E+03  0.0000E+00  0.0000E+00  0.0000E+00  0.0000E+00  0.0000E+00  0.0000E+00  0.0000E+00  0.0000E+00  0.0000E+00  0.0000E+00  0.0000E+00  0.0000E+00  0.0000E+00  0.0000E+00  0.0000E+00  0.0000E+00  0.0000E+00  0.1126E+02  0.1561E+01  0.0000E+00  0.0000E+00
REACH    6        0     6  0.2152E+00  0.1830E-01  0.1830E-01  0.2218E-05  0.0000E+00  0.3438E+01  0.3438E+01  0.4670E+01  0.6715E+01  0.6713E+01  0.1447E+01  0.1447E+01  0.4248E+01  0.4248E+01  0.0000E+00  0.2287E-02  0.0000E+00  0.0000E+00  0.1019E+00  0.1024E+00  0.1191E+00  0.1181E+00  0.9541E+03  0.9524E+03  0.2280E+03  0.1346E+03  0.0000E+00  0.0000E+00  0.0000E+00  0.0000E+00  0.0000E+00  0.0000E+00  0.0000E+00  0.0000E+00  0.0000E+00  0.0000E+00  0.0000E+00  0.0000E+00  0.0000E+00  0.0000E+00  0.0000E+00  0.0000E+00  0.0000E+00  0.1096E+02  0.1549E+01  0.0000E+00  0.0000E+00
REACH    7        0     6  0.8796E+00  0.7327E-01  0.7326E-01  0.6023E-05  0.0000E+00  0.1411E+03  0.4652E+02  0.1059E+03  0.1473E+03  0.1473E+03  0.3025E+02  0.3024E+02  0.1535E+02  0.1535E+02  0.6894E-01  0.9837E-01  0.0000E+00  0.9998E-05  0.6175E+00  0.6266E+00  0.4109E+01  0.4087E+01  0.6508E+05  0.6497E+05  0.3027E+03  0.2602E+03  0.0000E+00  0.0000E+00  0.0000E+00  0.0000E+00  0.0000E+00  0.0000E+00  0.0000E+00  0.0000E+00  0.0000E+00  0.0000E+00  0.0000E+00  0.0000E+00  0.0000E+00  0.0000E+00  0.0000E+00  0.0000E+00  0.0000E+00  0.1627E+03  0.3087E+02  0.0000E+00  0.0000E+00
REACH    8        0     6  0.1290E+01  0.1080E+00  0.1080E+00  0.7329E-05  0.0000E+00  0.5332E+02  0.4741E+02  0.7673E+02  0.1623E+03  0.1623E+03  0.3348E+02  0.3347E+02  0.2301E+02  0.2301E+02  0.1126E+00  0.1548E+00  0.9998E-05  0.3694E-04  0.8296E+00  0.8431E+00  0.4365E+01  0.4342E+01  0.6704E+05  0.6689E+05  0.5412E+03  0.4047E+03  0.0000E+00  0.0000E+00  0.0000E+00  0.0000E+00  0.0000E+00  0.0000E+00  0.0000E+00  0.0000E+00  0.0000E+00  0.0000E+00  0.0000E+00  0.0000E+00  0.0000E+00  0.0000E+00  0.0000E+00  0.0000E+00  0.0000E+00  0.1854E+03  0.3431E+02  0.0000E+00  0.0000E+00
REACH    9        0     6  0.1859E+01  0.1562E+00  0.1562E+00  0.3805E-04  0.0000E+00  0.5690E+02  0.1403E+03  0.1508E+03  0.1792E+03  0.1791E+03  0.3715E+02  0.3711E+02  0.3285E+02  0.3284E+02  0.1634E+00  0.2725E+00  0.3694E-04  0.1276E-03  0.1089E+01  0.1122E+01  0.4697E+01  0.4635E+01  0.6948E+05  0.6914E+05  0.8368E+03  0.6163E+03  0.0000E+00  0.0000E+00  0.0000E+00  0.0000E+00  0.0000E+00  0.0000E+00  0.0000E+00  0.0000E+00  0.0000E+00  0.0000E+00  0.0000E+00  0.0000E+00  0.0000E+00  0.0000E+00  0.0000E+00  0.0000E+00  0.0000E+00  0.2122E+03  0.3823E+02  0.0000E+00  0.0000E+00
REACH   10        0     6  0.2144E+01  0.1802E+00  0.1802E+00  0.9427E-05  0.0000E+00  0.1451E+03  0.1200E+03  0.1114E+03  0.1878E+03  0.1878E+03  0.3900E+02  0.3899E+02  0.3803E+02  0.3802E+02  0.2748E+00  0.3074E+00  0.1276E-03  0.1929E-03  0.1267E+01  0.1277E+01  0.4808E+01  0.4792E+01  0.7049E+05  0.7039E+05  0.8166E+03  0.7211E+03  0.0000E+00  0.0000E+00  0.0000E+00  0.0000E+00  0.0000E+00  0.0000E+00  0.0000E+00  0.0000E+00  0.0000E+00  0.0000E+00  0.0000E+00  0.0000E+00  0.0000E+00  0.0000E+00  0.0000E+00  0.0000E+00  0.0000E+00  0.2261E+03  0.4027E+02  0.0000E+00  0.0000E+00
REACH   11        0     6  0.2518E+01  0.2120E+00  0.2119E+00  0.8556E-05  0.0000E+00  0.1280E+03  0.1347E+03  0.1077E+03  0.2000E+03  0.2000E+03  0.4164E+02  0.4163E+02  0.4469E+02  0.4469E+02  0.3140E+00  0.3436E+00  0.1929E-03  0.2537E-03  0.1427E+01  0.1436E+01  0.5060E+01  0.5046E+01  0.7275E+05  0.7266E+05  0.1003E+04  0.8702E+03  0.0000E+00  0.0000E+00  0.0000E+00  0.0000E+00  0.0000E+00  0.0000E+00  0.0000E+00  0.0000E+00  0.0000E+00  0.0000E+00  0.0000E+00  0.0000E+00  0.0000E+00  0.0000E+00  0.0000E+00  0.0000E+00  0.0000E+00  0.2450E+03  0.4306E+02  0.0000E+00  0.0000E+00
REACH    1        0     7  0.3586E+00  0.2122E-01  0.2121E-01  0.1287E-04  0.0000E+00  0.1311E+01  0.1311E+01  0.6437E+01  0.2831E+01  0.2828E+01  0.6126E+00  0.6117E+00  0.7291E+01  0.7288E+01  0.0000E+00  0.8100E-02  0.0000E+00  0.0000E+00  0.2029E-01  0.2119E-01  0.3827E-02  0.3613E-02  0.1012E+03  0.1006E+03  0.4494E+03  0.3647E+03  0.0000E+00  0.0000E+00  0.0000E+00  0.0000E+00  0.0000E+00  0.0000E+00  0.0000E+00  0.0000E+00  0.0000E+00  0.0000E+00  0.0000E+00  0.0000E+00  0.0000E+00  0.0000E+00  0.0000E+00  0.0000E+00  0.0000E+00  0.1012E+02  0.6329E+00  0.0000E+00  0.0000E+00
REACH    2        0     7  0.3300E+00  0.1955E-01  0.1954E-01  0.8092E-05  0.0000E+00  0.9981E+01  0.9981E+01  0.6275E+02  0.2141E+02  0.2140E+02  0.4402E+01  0.4397E+01  0.1353E+02  0.1353E+02  0.0000E+00  0.1329E-01  0.0000E+00  0.0000E+00  0.1980E+00  0.2014E+00  0.1636E+00  0.1571E+00  0.2762E+04  0.2750E+04  0.4044E+03  0.1736E+03  0.0000E+00  0.0000E+00  0.0000E+00  0.0000E+00  0.0000E+00  0.0000E+00  0.0000E+00  0.0000E+00  0.0000E+00  0.0000E+00  0.0000E+00  0.0000E+00  0.0000E+00  0.0000E+00  0.0000E+00  0.0000E+00  0.0000E+00  0.3494E+02  0.4599E+01  0.0000E+00  0.0000E+00
REACH    3        0     7  0.4975E+00  0.2795E-01  0.2794E-01  0.1198E-04  0.0000E+00  0.2289E+02  0.2289E+02  0.1154E+03  0.3617E+02  0.3614E+02  0.8233E+01  0.8224E+01  0.1623E+02  0.1623E+02  0.0000E+00  0.2386E-01  0.0000E+00  0.0000E+00  0.3666E+00  0.3736E+00  0.4769E+00  0.4543E+00  0.8314E+04  0.8272E+04  0.5528E+03  0.2600E+03  0.0000E+00  0.0000E+00  0.0000E+00  0.0000E+00  0.0000E+00  0.0000E+00  0.0000E+00  0.0000E+00  0.0000E+00  0.0000E+00  0.0000E+00  0.0000E+00  0.0000E+00  0.0000E+00  0.0000E+00  0.0000E+00  0.0000E+00  0.5239E+02  0.8598E+01  0.0000E+00  0.0000E+00
REACH    4        0     7  0.3461E+00  0.2023E-01  0.2022E-01  0.7857E-05  0.0000E+00  0.1996E+01  0.1996E+01  0.1093E+02  0.4335E+01  0.4332E+01  0.9424E+00  0.9414E+00  0.6062E+01  0.6060E+01  0.0000E+00  0.5873E-02  0.0000E+00  0.0000E+00  0.3143E-01  0.3229E-01  0.1333E-01  0.1283E-01  0.2129E+03  0.2119E+03  0.4067E+03  0.2986E+03  0.0000E+00  0.0000E+00  0.0000E+00  0.0000E+00  0.0000E+00  0.0000E+00  0.0000E+00  0.0000E+00  0.0000E+00  0.0000E+00  0.0000E+00  0.0000E+00  0.0000E+00  0.0000E+00  0.0000E+00  0.0000E+00  0.0000E+00  0.1040E+02  0.9737E+00  0.0000E+00  0.0000E+00
REACH    5        0     7  0.2479E+00  0.1486E-01  0.1485E-01  0.6584E-05  0.0000E+00  0.1095E+01  0.1095E+01  0.8002E+01  0.2099E+01  0.2097E+01  0.4568E+00  0.4563E+00  0.4665E+01  0.4663E+01  0.0000E+00  0.4194E-02  0.0000E+00  0.0000E+00  0.1635E-01  0.1686E-01  0.5004E-02  0.4790E-02  0.9702E+02  0.9651E+02  0.3098E+03  0.2418E+03  0.0000E+00  0.0000E+00  0.0000E+00  0.0000E+00  0.0000E+00  0.0000E+00  0.0000E+00  0.0000E+00  0.0000E+00  0.0000E+00  0.0000E+00  0.0000E+00  0.0000E+00  0.0000E+00  0.0000E+00  0.0000E+00  0.0000E+00  0.6764E+01  0.4731E+00  0.0000E+00  0.0000E+00
REACH    6        0     7  0.2152E+00  0.1279E-01  0.1279E-01  0.2158E-05  0.0000E+00  0.8150E+00  0.8150E+00  0.6676E+01  0.1718E+01  0.1717E+01  0.3728E+00  0.3727E+00  0.4515E+01  0.4514E+01  0.0000E+00  0.1341E-02  0.0000E+00  0.0000E+00  0.1792E-01  0.1810E-01  0.4392E-02  0.4321E-02  0.7319E+02  0.7304E+02  0.2685E+03  0.2116E+03  0.0000E+00  0.0000E+00  0.0000E+00  0.0000E+00  0.0000E+00  0.0000E+00  0.0000E+00  0.0000E+00  0.0000E+00  0.0000E+00  0.0000E+00  0.0000E+00  0.0000E+00  0.0000E+00  0.0000E+00  0.0000E+00  0.0000E+00  0.6233E+01  0.3908E+00  0.0000E+00  0.0000E+00
REACH    7        0     7  0.8796E+00  0.5068E-01  0.5067E-01  0.5842E-05  0.0000E+00  0.3303E+02  0.2948E+02  0.1372E+03  0.5786E+02  0.5784E+02  0.1269E+02  0.1269E+02  0.3079E+02  0.3079E+02  0.3715E-01  0.5156E-01  0.0000E+00  0.4538E-05  0.5780E+00  0.5824E+00  0.6118E+00  0.6042E+00  0.1103E+05  0.1101E+05  0.5018E+03  0.4593E+03  0.0000E+00  0.0000E+00  0.0000E+00  0.0000E+00  0.0000E+00  0.0000E+00  0.0000E+00  0.0000E+00  0.0000E+00  0.0000E+00  0.0000E+00  0.0000E+00  0.0000E+00  0.0000E+00  0.0000E+00  0.0000E+00  0.0000E+00  0.8868E+02  0.1327E+02  0.0000E+00  0.0000E+00
REACH    8        0     7  0.1290E+01  0.7494E-01  0.7493E-01  0.7282E-05  0.0000E+00  0.3096E+02  0.2850E+02  0.9236E+02  0.6105E+02  0.6102E+02  0.1338E+02  0.1337E+02  0.3903E+02  0.3902E+02  0.5966E-01  0.8023E-01  0.4538E-05  0.1977E-04  0.6087E+00  0.6151E+00  0.6087E+00  0.6020E+00  0.1112E+05  0.1109E+05  0.8885E+03  0.6971E+03  0.0000E+00  0.0000E+00  0.0000E+00  0.0000E+00  0.0000E+00  0.0000E+00  0.0000E+00  0.0000E+00  0.0000E+00  0.0000E+00  0.0000E+00  0.0000E+00  0.0000E+00  0.0000E+00  0.0000E+00  0.0000E+00  0.0000E+00  0.1001E+03  0.1399E+02  0.0000E+00  0.0000E+00
REACH    9        0     7  0.1859E+01  0.1083E+00  0.1083E+00  0.3679E-04  0.0000E+00  0.3158E+02  0.8748E+02  0.1853E+03  0.6751E+02  0.6746E+02  0.1478E+02  0.1477E+02  0.4913E+02  0.4912E+02  0.8610E-01  0.1434E+00  0.1977E-04  0.8377E-04  0.6642E+00  0.6797E+00  0.6222E+00  0.5996E+00  0.1142E+05  0.1135E+05  0.1267E+04  0.1033E+04  0.0000E+00  0.0000E+00  0.0000E+00  0.0000E+00  0.0000E+00  0.0000E+00  0.0000E+00  0.0000E+00  0.0000E+00  0.0000E+00  0.0000E+00  0.0000E+00  0.0000E+00  0.0000E+00  0.0000E+00  0.0000E+00  0.0000E+00  0.1167E+03  0.1544E+02  0.0000E+00  0.0000E+00
REACH   10        0     7  0.2144E+01  0.1249E+00  0.1249E+00  0.9184E-05  0.0000E+00  0.8872E+02  0.7356E+02  0.1403E+03  0.6988E+02  0.6987E+02  0.1530E+02  0.1529E+02  0.5467E+02  0.5466E+02  0.1447E+00  0.1613E+00  0.8377E-04  0.1101E-03  0.7084E+00  0.7131E+00  0.6124E+00  0.6074E+00  0.1150E+05  0.1148E+05  0.1322E+04  0.1202E+04  0.0000E+00  0.0000E+00  0.0000E+00  0.0000E+00  0.0000E+00  0.0000E+00  0.0000E+00  0.0000E+00  0.0000E+00  0.0000E+00  0.0000E+00  0.0000E+00  0.0000E+00  0.0000E+00  0.0000E+00  0.0000E+00  0.0000E+00  0.1247E+03  0.1600E+02  0.0000E+00  0.0000E+00
REACH   11        0     7  0.2518E+01  0.1469E+00  0.1469E+00  0.8354E-05  0.0000E+00  0.7572E+02  0.8306E+02  0.1346E+03  0.7352E+02  0.7351E+02  0.1608E+02  0.1608E+02  0.6173E+02  0.6172E+02  0.1655E+00  0.1804E+00  0.1101E-03  0.1488E-03  0.7409E+00  0.7451E+00  0.6298E+00  0.6258E+00  0.1179E+05  0.1177E+05  0.1592E+04  0.1433E+04  0.0000E+00  0.0000E+00  0.0000E+00  0.0000E+00  0.0000E+00  0.0000E+00  0.0000E+00  0.0000E+00  0.0000E+00  0.0000E+00  0.0000E+00  0.0000E+00  0.0000E+00  0.0000E+00  0.0000E+00  0.0000E+00  0.0000E+00  0.1354E+03  0.1682E+02  0.0000E+00  0.0000E+00
REACH    1        0     8  0.3586E+00  0.4980E-01  0.4978E-01  0.2100E-04  0.0000E+00  0.3815E+02  0.3815E+02  0.5913E+02  0.8910E+02  0.8901E+02  0.1925E+02  0.1922E+02  0.8407E+01  0.8403E+01  0.0000E+00  0.6470E-01  0.0000E+00  0.0000E+00  0.2139E+00  0.2350E+00  0.1278E+01  0.1237E+01  0.9932E+04  0.9868E+04  0.8066E+03  0.5128E+03  0.0000E+00  0.0000E+00  0.0000E+00  0.0000E+00  0.0000E+00  0.0000E+00  0.0000E+00  0.0000E+00  0.0000E+00  0.0000E+00  0.0000E+00  0.0000E+00  0.0000E+00  0.0000E+00  0.0000E+00  0.0000E+00  0.0000E+00  0.9748E+02  0.1945E+02  0.0000E+00  0.0000E+00
REACH    2        0     8  0.3300E+00  0.4575E-01  0.4574E-01  0.1187E-04  0.0000E+00  0.7182E+02  0.7182E+02  0.1412E+03  0.1323E+03  0.1322E+03  0.2901E+02  0.2898E+02  0.1829E+02  0.1829E+02  0.0000E+00  0.5970E-01  0.0000E+00  0.0000E+00  0.1131E+01  0.1151E+01  0.2357E+01  0.2306E+01  0.2575E+05  0.2565E+05  0.7361E+03  0.3594E+03  0.0000E+00  0.0000E+00  0.0000E+00  0.0000E+00  0.0000E+00  0.0000E+00  0.0000E+00  0.0000E+00  0.0000E+00  0.0000E+00  0.0000E+00  0.0000E+00  0.0000E+00  0.0000E+00  0.0000E+00  0.0000E+00  0.0000E+00  0.1505E+03  0.3014E+02  0.0000E+00  0.0000E+00
REACH    3        0     8  0.4975E+00  0.6674E-01  0.6672E-01  0.1762E-04  0.0000E+00  0.1380E+03  0.1380E+03  0.2120E+03  0.2121E+03  0.2120E+03  0.4931E+02  0.4927E+02  0.2052E+02  0.2051E+02  0.0000E+00  0.1051E+00  0.0000E+00  0.0000E+00  0.2062E+01  0.2099E+01  0.4773E+01  0.4670E+01  0.5374E+05  0.5349E+05  0.1006E+04  0.5398E+03  0.0000E+00  0.0000E+00  0.0000E+00  0.0000E+00  0.0000E+00  0.0000E+00  0.0000E+00  0.0000E+00  0.0000E+00  0.0000E+00  0.0000E+00  0.0000E+00  0.0000E+00  0.0000E+00  0.0000E+00  0.0000E+00  0.0000E+00  0.2326E+03  0.5137E+02  0.0000E+00  0.0000E+00
REACH    4        0     8  0.3461E+00  0.4938E-01  0.4936E-01  0.1288E-04  0.0000E+00  0.3967E+02  0.3967E+02  0.6507E+02  0.8441E+02  0.8435E+02  0.1836E+02  0.1834E+02  0.8787E+01  0.8784E+01  0.0000E+00  0.5197E-01  0.0000E+00  0.0000E+00  0.2252E+00  0.2425E+00  0.1528E+01  0.1489E+01  0.1015E+05  0.1009E+05  0.7475E+03  0.4764E+03  0.0000E+00  0.0000E+00  0.0000E+00  0.0000E+00  0.0000E+00  0.0000E+00  0.0000E+00  0.0000E+00  0.0000E+00  0.0000E+00  0.0000E+00  0.0000E+00  0.0000E+00  0.0000E+00  0.0000E+00  0.0000E+00  0.0000E+00  0.9318E+02  0.1858E+02  0.0000E+00  0.0000E+00
REACH    5        0     8  0.2479E+00  0.3508E-01  0.3507E-01  0.1073E-04  0.0000E+00  0.2809E+02  0.2809E+02  0.6417E+02  0.5345E+02  0.5340E+02  0.1164E+02  0.1163E+02  0.5464E+01  0.5462E+01  0.0000E+00  0.3788E-01  0.0000E+00  0.0000E+00  0.1475E+00  0.1601E+00  0.9441E+00  0.9141E+00  0.7061E+04  0.7016E+04  0.5451E+03  0.3553E+03  0.0000E+00  0.0000E+00  0.0000E+00  0.0000E+00  0.0000E+00  0.0000E+00  0.0000E+00  0.0000E+00  0.0000E+00  0.0000E+00  0.0000E+00  0.0000E+00  0.0000E+00  0.0000E+00  0.0000E+00  0.0000E+00  0.0000E+00  0.5890E+02  0.1179E+02  0.0000E+00  0.0000E+00
REACH    6        0     8  0.2152E+00  0.3025E-01  0.3024E-01  0.3531E-05  0.0000E+00  0.2245E+02  0.2245E+02  0.5720E+02  0.4802E+02  0.4800E+02  0.1042E+02  0.1042E+02  0.5181E+01  0.5180E+01  0.0000E+00  0.1264E-01  0.0000E+00  0.0000E+00  0.1636E+00  0.1677E+00  0.7640E+00  0.7547E+00  0.5677E+04  0.5664E+04  0.4805E+03  0.3027E+03  0.0000E+00  0.0000E+00  0.0000E+00  0.0000E+00  0.0000E+00  0.0000E+00  0.0000E+00  0.0000E+00  0.0000E+00  0.0000E+00  0.0000E+00  0.0000E+00  0.0000E+00  0.0000E+00  0.0000E+00  0.0000E+00  0.0000E+00  0.5319E+02  0.1058E+02  0.0000E+00  0.0000E+00
REACH    7        0     8  0.8796E+00  0.1198E+00  0.1198E+00  0.9287E-05  0.0000E+00  0.2148E+03  0.6960E+02  0.1485E+03  0.3540E+03  0.3539E+03  0.8039E+02  0.8036E+02  0.3987E+02  0.3986E+02  0.1648E+00  0.2493E+00  0.0000E+00  0.2670E-05  0.3282E+01  0.3312E+01  0.7132E+01  0.7078E+01  0.8032E+05  0.8014E+05  0.1017E+04  0.9559E+03  0.0000E+00  0.0000E+00  0.0000E+00  0.0000E+00  0.0000E+00  0.0000E+00  0.0000E+00  0.0000E+00  0.0000E+00  0.0000E+00  0.0000E+00  0.0000E+00  0.0000E+00  0.0000E+00  0.0000E+00  0.0000E+00  0.0000E+00  0.3940E+03  0.8367E+02  0.0000E+00  0.0000E+00
REACH    8        0     8  0.1290E+01  0.1768E+00  0.1768E+00  0.1196E-04  0.0000E+00  0.1123E+03  0.6703E+02  0.9774E+02  0.4530E+03  0.4528E+03  0.1018E+03  0.1017E+03  0.4935E+02  0.4934E+02  0.3139E+00  0.4564E+00  0.2670E-05  0.1328E-04  0.3588E+01  0.3639E+01  0.8489E+01  0.8425E+01  0.9114E+05  0.9087E+05  0.1583E+04  0.1433E+04  0.0000E+00  0.0000E+00  0.0000E+00  0.0000E+00  0.0000E+00  0.0000E+00  0.0000E+00  0.0000E+00  0.0000E+00  0.0000E+00  0.0000E+00  0.0000E+00  0.0000E+00  0.0000E+00  0.0000E+00  0.0000E+00  0.0000E+00  0.5026E+03  0.1053E+03  0.0000E+00  0.0000E+00
REACH    9        0     8  0.1859E+01  0.2576E+00  0.2576E+00  0.5174E-04  0.0000E+00  0.1318E+03  0.2649E+03  0.2186E+03  0.5869E+03  0.5866E+03  0.1309E+03  0.1308E+03  0.6315E+02  0.6313E+02  0.5084E+00  0.8171E+00  0.1328E-04  0.6441E-04  0.4022E+01  0.4130E+01  0.1083E+02  0.1066E+02  0.1074E+06  0.1068E+06  0.2392E+04  0.2115E+04  0.0000E+00  0.0000E+00  0.0000E+00  0.0000E+00  0.0000E+00  0.0000E+00  0.0000E+00  0.0000E+00  0.0000E+00  0.0000E+00  0.0000E+00  0.0000E+00  0.0000E+00  0.0000E+00  0.0000E+00  0.0000E+00  0.0000E+00  0.6505E+03  0.1349E+03  0.0000E+00  0.0000E+00
REACH   10        0     8  0.2144E+01  0.2972E+00  0.2972E+00  0.1424E-04  0.0000E+00  0.2951E+03  0.1873E+03  0.1522E+03  0.6482E+03  0.6481E+03  0.1442E+03  0.1441E+03  0.6949E+02  0.6949E+02  0.8297E+00  0.9498E+00  0.6441E-04  0.1004E-03  0.4358E+01  0.4401E+01  0.1172E+02  0.1166E+02  0.1145E+06  0.1143E+06  0.2559E+04  0.2453E+04  0.0000E+00  0.0000E+00  0.0000E+00  0.0000E+00  0.0000E+00  0.0000E+00  0.0000E+00  0.0000E+00  0.0000E+00  0.0000E+00  0.0000E+00  0.0000E+00  0.0000E+00  0.0000E+00  0.0000E+00  0.0000E+00  0.0000E+00  0.7185E+03  0.1485E+03  0.0000E+00  0.0000E+00
REACH   11        0     8  0.2518E+01  0.3495E+00  0.3495E+00  0.1292E-04  0.0000E+00  0.2347E+03  0.2027E+03  0.1444E+03  0.7320E+03  0.7318E+03  0.1624E+03  0.1623E+03  0.7766E+02  0.7766E+02  0.9876E+00  0.1108E+01  0.1004E-03  0.1340E-03  0.4646E+01  0.4689E+01  0.1314E+02  0.1309E+02  0.1264E+06  0.1262E+06  0.3081E+04  0.2909E+04  0.0000E+00  0.0000E+00  0.0000E+00  0.0000E+00  0.0000E+00  0.0000E+00  0.0000E+00  0.0000E+00  0.0000E+00  0.0000E+00  0.0000E+00  0.0000E+00  0.0000E+00  0.0000E+00  0.0000E+00  0.0000E+00  0.0000E+00  0.8106E+03  0.1670E+03  0.0000E+00  0.0000E+00
REACH    1        0     9  0.3586E+00  0.1373E-01  0.1371E-01  0.1813E-04  0.0000E+00  0.1021E+02  0.1021E+02  0.4633E+02  0.1723E+02  0.1721E+02  0.3736E+01  0.3732E+01  0.2016E+01  0.2015E+01  0.0000E+00  0.1580E-01  0.0000E+00  0.0000E+00  0.2066E-01  0.2434E-01  0.1308E+00  0.1251E+00  0.1776E+04  0.1766E+04  0.2481E+03  0.1540E+03  0.0000E+00  0.0000E+00  0.0000E+00  0.0000E+00  0.0000E+00  0.0000E+00  0.0000E+00  0.0000E+00  0.0000E+00  0.0000E+00  0.0000E+00  0.0000E+00  0.0000E+00  0.0000E+00  0.0000E+00  0.0000E+00  0.0000E+00  0.1924E+02  0.3756E+01  0.0000E+00  0.0000E+00
REACH    2        0     9  0.3300E+00  0.1238E-01  0.1236E-01  0.1155E-04  0.0000E+00  0.1831E+02  0.1831E+02  0.1007E+03  0.2122E+02  0.2121E+02  0.4854E+01  0.4849E+01  0.4515E+01  0.4513E+01  0.0000E+00  0.1225E-01  0.0000E+00  0.0000E+00  0.1251E+00  0.1285E+00  0.2233E+00  0.2162E+00  0.5008E+04  0.4988E+04  0.2183E+03  0.9941E+02  0.0000E+00  0.0000E+00  0.0000E+00  0.0000E+00  0.0000E+00  0.0000E+00  0.0000E+00  0.0000E+00  0.0000E+00  0.0000E+00  0.0000E+00  0.0000E+00  0.0000E+00  0.0000E+00  0.0000E+00  0.0000E+00  0.0000E+00  0.2573E+02  0.4978E+01  0.0000E+00  0.0000E+00
REACH    3        0     9  0.4975E+00  0.2123E-01  0.2121E-01  0.1770E-04  0.0000E+00  0.3677E+02  0.3677E+02  0.1550E+03  0.3498E+02  0.3495E+02  0.8446E+01  0.8438E+01  0.5819E+01  0.5816E+01  0.0000E+00  0.2058E-01  0.0000E+00  0.0000E+00  0.2455E+00  0.2516E+00  0.4989E+00  0.4811E+00  0.1163E+05  0.1158E+05  0.3713E+03  0.2032E+03  0.0000E+00  0.0000E+00  0.0000E+00  0.0000E+00  0.0000E+00  0.0000E+00  0.0000E+00  0.0000E+00  0.0000E+00  0.0000E+00  0.0000E+00  0.0000E+00  0.0000E+00  0.0000E+00  0.0000E+00  0.0000E+00  0.0000E+00  0.4079E+02  0.8690E+01  0.0000E+00  0.0000E+00
REACH    4        0     9  0.3461E+00  0.1229E-01  0.1228E-01  0.1094E-04  0.0000E+00  0.1052E+02  0.1052E+02  0.5118E+02  0.1838E+02  0.1837E+02  0.3999E+01  0.3995E+01  0.2006E+01  0.2004E+01  0.0000E+00  0.1181E-01  0.0000E+00  0.0000E+00  0.2297E-01  0.2601E-01  0.1675E+00  0.1627E+00  0.1879E+04  0.1871E+04  0.2103E+03  0.1272E+03  0.0000E+00  0.0000E+00  0.0000E+00  0.0000E+00  0.0000E+00  0.0000E+00  0.0000E+00  0.0000E+00  0.0000E+00  0.0000E+00  0.0000E+00  0.0000E+00  0.0000E+00  0.0000E+00  0.0000E+00  0.0000E+00  0.0000E+00  0.2038E+02  0.4021E+01  0.0000E+00  0.0000E+00
REACH    5        0     9  0.2479E+00  0.9118E-02  0.9109E-02  0.8960E-05  0.0000E+00  0.7957E+01  0.7957E+01  0.5335E+02  0.1234E+02  0.1233E+02  0.2688E+01  0.2685E+01  0.1319E+01  0.1318E+01  0.0000E+00  0.8884E-02  0.0000E+00  0.0000E+00  0.1572E-01  0.1795E-01  0.1120E+00  0.1082E+00  0.1411E+04  0.1404E+04  0.1574E+03  0.9705E+02  0.0000E+00  0.0000E+00  0.0000E+00  0.0000E+00  0.0000E+00  0.0000E+00  0.0000E+00  0.0000E+00  0.0000E+00  0.0000E+00  0.0000E+00  0.0000E+00  0.0000E+00  0.0000E+00  0.0000E+00  0.0000E+00  0.0000E+00  0.1366E+02  0.2703E+01  0.0000E+00  0.0000E+00
REACH    6        0     9  0.2152E+00  0.7769E-02  0.7766E-02  0.2935E-05  0.0000E+00  0.5991E+01  0.5991E+01  0.4508E+02  0.1014E+02  0.1014E+02  0.2206E+01  0.2205E+01  0.1191E+01  0.1190E+01  0.0000E+00  0.2800E-02  0.0000E+00  0.0000E+00  0.1657E-01  0.1728E-01  0.8568E-01  0.8460E-01  0.1040E+04  0.1038E+04  0.1364E+03  0.8174E+02  0.0000E+00  0.0000E+00  0.0000E+00  0.0000E+00  0.0000E+00  0.0000E+00  0.0000E+00  0.0000E+00  0.0000E+00  0.0000E+00  0.0000E+00  0.0000E+00  0.0000E+00  0.0000E+00  0.0000E+00  0.0000E+00  0.0000E+00  0.1133E+02  0.2222E+01  0.0000E+00  0.0000E+00
REACH    7        0     9  0.8796E+00  0.3551E-01  0.3550E-01  0.8510E-05  0.0000E+00  0.5660E+02  0.1790E+02  0.1140E+03  0.5863E+02  0.5862E+02  0.1383E+02  0.1382E+02  0.1058E+02  0.1058E+02  0.3283E-01  0.4628E-01  0.0000E+00  0.3800E-05  0.3836E+00  0.3880E+00  0.7192E+00  0.7123E+00  0.1683E+05  0.1680E+05  0.3362E+03  0.3166E+03  0.0000E+00  0.0000E+00  0.0000E+00  0.0000E+00  0.0000E+00  0.0000E+00  0.0000E+00  0.0000E+00  0.0000E+00  0.0000E+00  0.0000E+00  0.0000E+00  0.0000E+00  0.0000E+00  0.0000E+00  0.0000E+00  0.0000E+00  0.6925E+02  0.1421E+02  0.0000E+00  0.0000E+00
REACH    8        0     9  0.1290E+01  0.5117E-01  0.5116E-01  0.1160E-04  0.0000E+00  0.2942E+02  0.1363E+02  0.7664E+02  0.7820E+02  0.7815E+02  0.1807E+02  0.1805E+02  0.1287E+02  0.1286E+02  0.6208E-01  0.9834E-01  0.3800E-05  0.2386E-04  0.4169E+00  0.4297E+00  0.8588E+00  0.8470E+00  0.1880E+05  0.1872E+05  0.5049E+03  0.4555E+03  0.0000E+00  0.0000E+00  0.0000E+00  0.0000E+00  0.0000E+00  0.0000E+00  0.0000E+00  0.0000E+00  0.0000E+00  0.0000E+00  0.0000E+00  0.0000E+00  0.0000E+00  0.0000E+00  0.0000E+00  0.0000E+00  0.0000E+00  0.9111E+02  0.1848E+02  0.0000E+00  0.0000E+00
REACH    9        0     9  0.1859E+01  0.7169E-01  0.7164E-01  0.5385E-04  0.0000E+00  0.3105E+02  0.5058E+02  0.1528E+03  0.1077E+03  0.1076E+03  0.2448E+02  0.2445E+02  0.1608E+02  0.1607E+02  0.1101E+00  0.1846E+00  0.2386E-04  0.1031E-03  0.4704E+00  0.4931E+00  0.1114E+01  0.1084E+01  0.2183E+05  0.2171E+05  0.7254E+03  0.6314E+03  0.0000E+00  0.0000E+00  0.0000E+00  0.0000E+00  0.0000E+00  0.0000E+00  0.0000E+00  0.0000E+00  0.0000E+00  0.0000E+00  0.0000E+00  0.0000E+00  0.0000E+00  0.0000E+00  0.0000E+00  0.0000E+00  0.0000E+00  0.1239E+03  0.2495E+02  0.0000E+00  0.0000E+00
REACH   10        0     9  0.2144E+01  0.8237E-01  0.8236E-01  0.1337E-04  0.0000E+00  0.5876E+02  0.4481E+02  0.1156E+03  0.1209E+03  0.1209E+03  0.2736E+02  0.2735E+02  0.1760E+02  0.1760E+02  0.1874E+00  0.2098E+00  0.1031E-03  0.1525E-03  0.5179E+00  0.5251E+00  0.1207E+01  0.1200E+01  0.2316E+05  0.2313E+05  0.7648E+03  0.7292E+03  0.0000E+00  0.0000E+00  0.0000E+00  0.0000E+00  0.0000E+00  0.0000E+00  0.0000E+00  0.0000E+00  0.0000E+00  0.0000E+00  0.0000E+00  0.0000E+00  0.0000E+00  0.0000E+00  0.0000E+00  0.0000E+00  0.0000E+00  0.1387E+03  0.2787E+02  0.0000E+00  0.0000E+00
REACH   11        0     9  0.2518E+01  0.9666E-01  0.9664E-01  0.1218E-04  0.0000E+00  0.5801E+02  0.4852E+02  0.1076E+03  0.1394E+03  0.1394E+03  0.3139E+02  0.3138E+02  0.1960E+02  0.1960E+02  0.2187E+00  0.2412E+00  0.1525E-03  0.2052E-03  0.5524E+00  0.5597E+00  0.1373E+01  0.1367E+01  0.2549E+05  0.2545E+05  0.9195E+03  0.8634E+03  0.0000E+00  0.0000E+00  0.0000E+00  0.0000E+00  0.0000E+00  0.0000E+00  0.0000E+00  0.0000E+00  0.0000E+00  0.0000E+00  0.0000E+00  0.0000E+00  0.0000E+00  0.0000E+00  0.0000E+00  0.0000E+00  0.0000E+00  0.1592E+03  0.3194E+02  0.0000E+00  0.0000E+00
REACH    1        0    10  0.3586E+00  0.1959E-01  0.1957E-01  0.1958E-04  0.0000E+00  0.5003E+02  0.5003E+02  0.1603E+03  0.7876E+02  0.7869E+02  0.1707E+02  0.1705E+02  0.4552E+01  0.4549E+01  0.0000E+00  0.4897E-01  0.0000E+00  0.0000E+00  0.6042E-01  0.7600E-01  0.7805E+00  0.7529E+00  0.9374E+04  0.9324E+04  0.2911E+03  0.1215E+03  0.0000E+00  0.0000E+00  0.0000E+00  0.0000E+00  0.0000E+00  0.0000E+00  0.0000E+00  0.0000E+00  0.0000E+00  0.0000E+00  0.0000E+00  0.0000E+00  0.0000E+00  0.0000E+00  0.0000E+00  0.0000E+00  0.0000E+00  0.8329E+02  0.1713E+02  0.0000E+00  0.0000E+00
REACH    2        0    10  0.3300E+00  0.1760E-01  0.1759E-01  0.1239E-04  0.0000E+00  0.5652E+02  0.5652E+02  0.1992E+03  0.7019E+02  0.7015E+02  0.1623E+02  0.1622E+02  0.7987E+01  0.7984E+01  0.0000E+00  0.3011E-01  0.0000E+00  0.0000E+00  0.2657E+00  0.2758E+00  0.8971E+00  0.8746E+00  0.1621E+05  0.1615E+05  0.2503E+03  0.8159E+02  0.0000E+00  0.0000E+00  0.0000E+00  0.0000E+00  0.0000E+00  0.0000E+00  0.0000E+00  0.0000E+00  0.0000E+00  0.0000E+00  0.0000E+00  0.0000E+00  0.0000E+00  0.0000E+00  0.0000E+00  0.0000E+00  0.0000E+00  0.7816E+02  0.1649E+02  0.0000E+00  0.0000E+00
REACH    3        0    10  0.4975E+00  0.2762E-01  0.2760E-01  0.1849E-04  0.0000E+00  0.9604E+02  0.9604E+02  0.2514E+03  0.1054E+03  0.1053E+03  0.2522E+02  0.2520E+02  0.9454E+01  0.9449E+01  0.0000E+00  0.4629E-01  0.0000E+00  0.0000E+00  0.5160E+00  0.5320E+00  0.1623E+01  0.1580E+01  0.3124E+05  0.3112E+05  0.3775E+03  0.1687E+03  0.0000E+00  0.0000E+00  0.0000E+00  0.0000E+00  0.0000E+00  0.0000E+00  0.0000E+00  0.0000E+00  0.0000E+00  0.0000E+00  0.0000E+00  0.0000E+00  0.0000E+00  0.0000E+00  0.0000E+00  0.0000E+00  0.0000E+00  0.1148E+03  0.2573E+02  0.0000E+00  0.0000E+00
REACH    4        0    10  0.3461E+00  0.1855E-01  0.1854E-01  0.1396E-04  0.0000E+00  0.5023E+02  0.5023E+02  0.1681E+03  0.7967E+02  0.7959E+02  0.1735E+02  0.1732E+02  0.3919E+01  0.3916E+01  0.0000E+00  0.5254E-01  0.0000E+00  0.0000E+00  0.6393E-01  0.8164E-01  0.9683E+00  0.9337E+00  0.9720E+04  0.9657E+04  0.2508E+03  0.1062E+03  0.0000E+00  0.0000E+00  0.0000E+00  0.0000E+00  0.0000E+00  0.0000E+00  0.0000E+00  0.0000E+00  0.0000E+00  0.0000E+00  0.0000E+00  0.0000E+00  0.0000E+00  0.0000E+00  0.0000E+00  0.0000E+00  0.0000E+00  0.8356E+02  0.1741E+02  0.0000E+00  0.0000E+00
REACH    5        0    10  0.2479E+00  0.1356E-01  0.1355E-01  0.1160E-04  0.0000E+00  0.3812E+02  0.3812E+02  0.1762E+03  0.5308E+02  0.5302E+02  0.1158E+02  0.1156E+02  0.2699E+01  0.2697E+01  0.0000E+00  0.4028E-01  0.0000E+00  0.0000E+00  0.4244E-01  0.5596E-01  0.6297E+00  0.6026E+00  0.7160E+04  0.7107E+04  0.1881E+03  0.8105E+02  0.0000E+00  0.0000E+00  0.0000E+00  0.0000E+00  0.0000E+00  0.0000E+00  0.0000E+00  0.0000E+00  0.0000E+00  0.0000E+00  0.0000E+00  0.0000E+00  0.0000E+00  0.0000E+00  0.0000E+00  0.0000E+00  0.0000E+00  0.5576E+02  0.1161E+02  0.0000E+00  0.0000E+00
REACH    6        0    10  0.2152E+00  0.1160E-01  0.1160E-01  0.3803E-05  0.0000E+00  0.2934E+02  0.2934E+02  0.1539E+03  0.4513E+02  0.4511E+02  0.9831E+01  0.9825E+01  0.2667E+01  0.2667E+01  0.0000E+00  0.1247E-01  0.0000E+00  0.0000E+00  0.4290E-01  0.4708E-01  0.4947E+00  0.4865E+00  0.5470E+04  0.5455E+04  0.1671E+03  0.6604E+02  0.0000E+00  0.0000E+00  0.0000E+00  0.0000E+00  0.0000E+00  0.0000E+00  0.0000E+00  0.0000E+00  0.0000E+00  0.0000E+00  0.0000E+00  0.0000E+00  0.0000E+00  0.0000E+00  0.0000E+00  0.0000E+00  0.0000E+00  0.4779E+02  0.9872E+01  0.0000E+00  0.0000E+00
REACH    7        0    10  0.8796E+00  0.4808E-01  0.4807E-01  0.1044E-04  0.0000E+00  0.1598E+03  0.2664E+02  0.1069E+03  0.1862E+03  0.1862E+03  0.4376E+02  0.4374E+02  0.1798E+02  0.1798E+02  0.7640E-01  0.1223E+00  0.0000E+00  0.1315E-04  0.8174E+00  0.8340E+00  0.2576E+01  0.2551E+01  0.4861E+05  0.4850E+05  0.2910E+03  0.2642E+03  0.0000E+00  0.0000E+00  0.0000E+00  0.0000E+00  0.0000E+00  0.0000E+00  0.0000E+00  0.0000E+00  0.0000E+00  0.0000E+00  0.0000E+00  0.0000E+00  0.0000E+00  0.0000E+00  0.0000E+00  0.0000E+00  0.0000E+00  0.2043E+03  0.4457E+02  0.0000E+00  0.0000E+00
REACH    8        0    10  0.1290E+01  0.7048E-01  0.7047E-01  0.1465E-04  0.0000E+00  0.8300E+02  0.2204E+02  0.6930E+02  0.2753E+03  0.2751E+03  0.6306E+02  0.6300E+02  0.2307E+02  0.2307E+02  0.1712E+00  0.2880E+00  0.1315E-04  0.4394E-04  0.9226E+00  0.9655E+00  0.3426E+01  0.3385E+01  0.5902E+05  0.5878E+05  0.4259E+03  0.3883E+03  0.0000E+00  0.0000E+00  0.0000E+00  0.0000E+00  0.0000E+00  0.0000E+00  0.0000E+00  0.0000E+00  0.0000E+00  0.0000E+00  0.0000E+00  0.0000E+00  0.0000E+00  0.0000E+00  0.0000E+00  0.0000E+00  0.0000E+00  0.2985E+03  0.6397E+02  0.0000E+00  0.0000E+00
REACH    9        0    10  0.1859E+01  0.1012E+00  0.1011E+00  0.5687E-04  0.0000E+00  0.1052E+03  0.1020E+03  0.1530E+03  0.4030E+03  0.4028E+03  0.9086E+02  0.9078E+02  0.2941E+02  0.2940E+02  0.3406E+00  0.5392E+00  0.4394E-04  0.1414E-03  0.1087E+01  0.1156E+01  0.4911E+01  0.4812E+01  0.7474E+05  0.7442E+05  0.6620E+03  0.5490E+03  0.0000E+00  0.0000E+00  0.0000E+00  0.0000E+00  0.0000E+00  0.0000E+00  0.0000E+00  0.0000E+00  0.0000E+00  0.0000E+00  0.0000E+00  0.0000E+00  0.0000E+00  0.0000E+00  0.0000E+00  0.0000E+00  0.0000E+00  0.4327E+03  0.9194E+02  0.0000E+00  0.0000E+00
REACH   10        0    10  0.2144E+01  0.1167E+00  0.1166E+00  0.1418E-04  0.0000E+00  0.1415E+03  0.8725E+02  0.1118E+03  0.4617E+03  0.4616E+03  0.1036E+03  0.1036E+03  0.3267E+02  0.3266E+02  0.5517E+00  0.6206E+00  0.1414E-03  0.2126E-03  0.1223E+01  0.1247E+01  0.5524E+01  0.5499E+01  0.8195E+05  0.8184E+05  0.6675E+03  0.6350E+03  0.0000E+00  0.0000E+00  0.0000E+00  0.0000E+00  0.0000E+00  0.0000E+00  0.0000E+00  0.0000E+00  0.0000E+00  0.0000E+00  0.0000E+00  0.0000E+00  0.0000E+00  0.0000E+00  0.0000E+00  0.0000E+00  0.0000E+00  0.4949E+03  0.1049E+03  0.0000E+00  0.0000E+00
REACH   11        0    10  0.2518E+01  0.1372E+00  0.1372E+00  0.1485E-04  0.0000E+00  0.1494E+03  0.7587E+02  0.1008E+03  0.5408E+03  0.5407E+03  0.1209E+03  0.1209E+03  0.3677E+02  0.3676E+02  0.6609E+00  0.7542E+00  0.2126E-03  0.2868E-03  0.1328E+01  0.1361E+01  0.6450E+01  0.6419E+01  0.9365E+05  0.9349E+05  0.8175E+03  0.7527E+03  0.0000E+00  0.0000E+00  0.0000E+00  0.0000E+00  0.0000E+00  0.0000E+00  0.0000E+00  0.0000E+00  0.0000E+00  0.0000E+00  0.0000E+00  0.0000E+00  0.0000E+00  0.0000E+00  0.0000E+00  0.0000E+00  0.0000E+00  0.5782E+03  0.1222E+03  0.0000E+00  0.0000E+00
REACH    1        0    11  0.3586E+00  0.1443E-01  0.1441E-01  0.1832E-04  0.0000E+00  0.4680E+02  0.4680E+02  0.1754E+03  0.6098E+02  0.6092E+02  0.1323E+02  0.1321E+02  0.3920E+01  0.3917E+01  0.0000E+00  0.4536E-01  0.0000E+00  0.0000E+00  0.2802E-01  0.4235E-01  0.4214E+00  0.4018E+00  0.6479E+04  0.6437E+04  0.2368E+03  0.1140E+03  0.0000E+00  0.0000E+00  0.0000E+00  0.0000E+00  0.0000E+00  0.0000E+00  0.0000E+00  0.0000E+00  0.0000E+00  0.0000E+00  0.0000E+00  0.0000E+00  0.0000E+00  0.0000E+00  0.0000E+00  0.0000E+00  0.0000E+00  0.6489E+02  0.1325E+02  0.0000E+00  0.0000E+00
REACH    2        0    11  0.3300E+00  0.1319E-01  0.1318E-01  0.1157E-04  0.0000E+00  0.4613E+02  0.4613E+02  0.1809E+03  0.5120E+02  0.5117E+02  0.1186E+02  0.1185E+02  0.6985E+01  0.6982E+01  0.0000E+00  0.2288E-01  0.0000E+00  0.0000E+00  0.1187E+00  0.1263E+00  0.4677E+00  0.4538E+00  0.1020E+05  0.1016E+05  0.2088E+03  0.7431E+02  0.0000E+00  0.0000E+00  0.0000E+00  0.0000E+00  0.0000E+00  0.0000E+00  0.0000E+00  0.0000E+00  0.0000E+00  0.0000E+00  0.0000E+00  0.0000E+00  0.0000E+00  0.0000E+00  0.0000E+00  0.0000E+00  0.0000E+00  0.5818E+02  0.1198E+02  0.0000E+00  0.0000E+00
REACH    3        0    11  0.4975E+00  0.2046E-01  0.2045E-01  0.1740E-04  0.0000E+00  0.7460E+02  0.7460E+02  0.2217E+03  0.7456E+02  0.7451E+02  0.1781E+02  0.1780E+02  0.7899E+01  0.7895E+01  0.0000E+00  0.3890E-01  0.0000E+00  0.0000E+00  0.2323E+00  0.2455E+00  0.8384E+00  0.8109E+00  0.2003E+05  0.1994E+05  0.3095E+03  0.1348E+03  0.0000E+00  0.0000E+00  0.0000E+00  0.0000E+00  0.0000E+00  0.0000E+00  0.0000E+00  0.0000E+00  0.0000E+00  0.0000E+00  0.0000E+00  0.0000E+00  0.0000E+00  0.0000E+00  0.0000E+00  0.0000E+00  0.0000E+00  0.8244E+02  0.1804E+02  0.0000E+00  0.0000E+00
REACH    4        0    11  0.3461E+00  0.1395E-01  0.1394E-01  0.1118E-04  0.0000E+00  0.4777E+02  0.4777E+02  0.1849E+03  0.6472E+02  0.6468E+02  0.1410E+02  0.1409E+02  0.3362E+01  0.3360E+01  0.0000E+00  0.3472E-01  0.0000E+00  0.0000E+00  0.3176E-01  0.4304E-01  0.6143E+00  0.5957E+00  0.7400E+04  0.7365E+04  0.2130E+03  0.1085E+03  0.0000E+00  0.0000E+00  0.0000E+00  0.0000E+00  0.0000E+00  0.0000E+00  0.0000E+00  0.0000E+00  0.0000E+00  0.0000E+00  0.0000E+00  0.0000E+00  0.0000E+00  0.0000E+00  0.0000E+00  0.0000E+00  0.0000E+00  0.6807E+02  0.1413E+02  0.0000E+00  0.0000E+00
REACH    5        0    11  0.2479E+00  0.1025E-01  0.1024E-01  0.9221E-05  0.0000E+00  0.3594E+02  0.3594E+02  0.1938E+03  0.4206E+02  0.4203E+02  0.9179E+01  0.9169E+01  0.2348E+01  0.2346E+01  0.0000E+00  0.2382E-01  0.0000E+00  0.0000E+00  0.2018E-01  0.2781E-01  0.3665E+00  0.3539E+00  0.5164E+04  0.5139E+04  0.1614E+03  0.8310E+02  0.0000E+00  0.0000E+00  0.0000E+00  0.0000E+00  0.0000E+00  0.0000E+00  0.0000E+00  0.0000E+00  0.0000E+00  0.0000E+00  0.0000E+00  0.0000E+00  0.0000E+00  0.0000E+00  0.0000E+00  0.0000E+00  0.0000E+00  0.4440E+02  0.9197E+01  0.0000E+00  0.0000E+00
REACH    6        0    11  0.2152E+00  0.8791E-02  0.8788E-02  0.2998E-05  0.0000E+00  0.2748E+02  0.2748E+02  0.1665E+03  0.3615E+02  0.3614E+02  0.7885E+01  0.7881E+01  0.2468E+01  0.2468E+01  0.0000E+00  0.7685E-02  0.0000E+00  0.0000E+00  0.2250E-01  0.2497E-01  0.2953E+00  0.2915E+00  0.3913E+04  0.3905E+04  0.1418E+03  0.6755E+02  0.0000E+00  0.0000E+00  0.0000E+00  0.0000E+00  0.0000E+00  0.0000E+00  0.0000E+00  0.0000E+00  0.0000E+00  0.0000E+00  0.0000E+00  0.0000E+00  0.0000E+00  0.0000E+00  0.0000E+00  0.0000E+00  0.0000E+00  0.3861E+02  0.7906E+01  0.0000E+00  0.0000E+00
REACH    7        0    11  0.8796E+00  0.3582E-01  0.3581E-01  0.8387E-05  0.0000E+00  0.1275E+03  0.2113E+02  0.1072E+03  0.1342E+03  0.1342E+03  0.3150E+02  0.3149E+02  0.1536E+02  0.1536E+02  0.6179E-01  0.8784E-01  0.0000E+00  0.1090E-04  0.3762E+00  0.3855E+00  0.1332E+01  0.1320E+01  0.3106E+05  0.3100E+05  0.2445E+03  0.2181E+03  0.0000E+00  0.0000E+00  0.0000E+00  0.0000E+00  0.0000E+00  0.0000E+00  0.0000E+00  0.0000E+00  0.0000E+00  0.0000E+00  0.0000E+00  0.0000E+00  0.0000E+00  0.0000E+00  0.0000E+00  0.0000E+00  0.0000E+00  0.1496E+03  0.3188E+02  0.0000E+00  0.0000E+00
REACH    8        0    11  0.1290E+01  0.5237E-01  0.5236E-01  0.1203E-04  0.0000E+00  0.7389E+02  0.1663E+02  0.7168E+02  0.2035E+03  0.2034E+03  0.4653E+02  0.4650E+02  0.1975E+02  0.1974E+02  0.1332E+00  0.2158E+00  0.1090E-04  0.3120E-04  0.4343E+00  0.4644E+00  0.1794E+01  0.1772E+01  0.3832E+05  0.3817E+05  0.3663E+03  0.3286E+03  0.0000E+00  0.0000E+00  0.0000E+00  0.0000E+00  0.0000E+00  0.0000E+00  0.0000E+00  0.0000E+00  0.0000E+00  0.0000E+00  0.0000E+00  0.0000E+00  0.0000E+00  0.0000E+00  0.0000E+00  0.0000E+00  0.0000E+00  0.2234E+03  0.4696E+02  0.0000E+00  0.0000E+00
REACH    9        0    11  0.1859E+01  0.7545E-01  0.7540E-01  0.5351E-04  0.0000E+00  0.9545E+02  0.6248E+02  0.1490E+03  0.3069E+03  0.3067E+03  0.6905E+02  0.6897E+02  0.2521E+02  0.2519E+02  0.2505E+00  0.4225E+00  0.3120E-04  0.1957E-03  0.5270E+00  0.5857E+00  0.2729E+01  0.2659E+01  0.5020E+05  0.4995E+05  0.5797E+03  0.4859E+03  0.0000E+00  0.0000E+00  0.0000E+00  0.0000E+00  0.0000E+00  0.0000E+00  0.0000E+00  0.0000E+00  0.0000E+00  0.0000E+00  0.0000E+00  0.0000E+00  0.0000E+00  0.0000E+00  0.0000E+00  0.0000E+00  0.0000E+00  0.3323E+03  0.6956E+02  0.0000E+00  0.0000E+00
REACH   10        0    11  0.2144E+01  0.8706E-01  0.8704E-01  0.1332E-04  0.0000E+00  0.9944E+02  0.5190E+02  0.1085E+03  0.3544E+03  0.3544E+03  0.7944E+02  0.7942E+02  0.2818E+02  0.2818E+02  0.4302E+00  0.4889E+00  0.1957E-03  0.2705E-03  0.6211E+00  0.6416E+00  0.3129E+01  0.3111E+01  0.5551E+05  0.5542E+05  0.5960E+03  0.5684E+03  0.0000E+00  0.0000E+00  0.0000E+00  0.0000E+00  0.0000E+00  0.0000E+00  0.0000E+00  0.0000E+00  0.0000E+00  0.0000E+00  0.0000E+00  0.0000E+00  0.0000E+00  0.0000E+00  0.0000E+00  0.0000E+00  0.0000E+00  0.3830E+03  0.8006E+02  0.0000E+00  0.0000E+00
REACH   11        0    11  0.2518E+01  0.1024E+00  0.1024E+00  0.1211E-04  0.0000E+00  0.1096E+03  0.5907E+02  0.1042E+03  0.4163E+03  0.4162E+03  0.9295E+02  0.9292E+02  0.3174E+02  0.3173E+02  0.5127E+00  0.5700E+00  0.2705E-03  0.3537E-03  0.6808E+00  0.7009E+00  0.3678E+01  0.3661E+01  0.6403E+05  0.6395E+05  0.7340E+03  0.6829E+03  0.0000E+00  0.0000E+00  0.0000E+00  0.0000E+00  0.0000E+00  0.0000E+00  0.0000E+00  0.0000E+00  0.0000E+00  0.0000E+00  0.0000E+00  0.0000E+00  0.0000E+00  0.0000E+00  0.0000E+00  0.0000E+00  0.0000E+00  0.4485E+03  0.9362E+02  0.0000E+00  0.0000E+00
REACH    1        0    12  0.3586E+00  0.2663E-01  0.2661E-01  0.1828E-04  0.0000E+00  0.1602E+03  0.1602E+03  0.4807E+03  0.1714E+03  0.1713E+03  0.3720E+02  0.3715E+02  0.8301E+01  0.8297E+01  0.0000E+00  0.1089E+00  0.0000E+00  0.0000E+00  0.4717E-01  0.8432E-01  0.1346E+01  0.1294E+01  0.2038E+05  0.2026E+05  0.4587E+03  0.2257E+03  0.0000E+00  0.0000E+00  0.0000E+00  0.0000E+00  0.0000E+00  0.0000E+00  0.0000E+00  0.0000E+00  0.0000E+00  0.0000E+00  0.0000E+00  0.0000E+00  0.0000E+00  0.0000E+00  0.0000E+00  0.0000E+00  0.0000E+00  0.1797E+03  0.3724E+02  0.0000E+00  0.0000E+00
REACH    2        0    12  0.3300E+00  0.2446E-01  0.2445E-01  0.1155E-04  0.0000E+00  0.1426E+03  0.1426E+03  0.4507E+03  0.1383E+03  0.1382E+03  0.3174E+02  0.3171E+02  0.1516E+02  0.1516E+02  0.0000E+00  0.5384E-01  0.0000E+00  0.0000E+00  0.1763E+00  0.1955E+00  0.1212E+01  0.1181E+01  0.2544E+05  0.2535E+05  0.4140E+03  0.1761E+03  0.0000E+00  0.0000E+00  0.0000E+00  0.0000E+00  0.0000E+00  0.0000E+00  0.0000E+00  0.0000E+00  0.0000E+00  0.0000E+00  0.0000E+00  0.0000E+00  0.0000E+00  0.0000E+00  0.0000E+00  0.0000E+00  0.0000E+00  0.1534E+03  0.3191E+02  0.0000E+00  0.0000E+00
REACH    3        0    12  0.4975E+00  0.3524E-01  0.3522E-01  0.1713E-04  0.0000E+00  0.2171E+03  0.2171E+03  0.5200E+03  0.1966E+03  0.1965E+03  0.4633E+02  0.4629E+02  0.1644E+02  0.1644E+02  0.0000E+00  0.8937E-01  0.0000E+00  0.0000E+00  0.3439E+00  0.3767E+00  0.2103E+01  0.2044E+01  0.4687E+05  0.4667E+05  0.5603E+03  0.2677E+03  0.0000E+00  0.0000E+00  0.0000E+00  0.0000E+00  0.0000E+00  0.0000E+00  0.0000E+00  0.0000E+00  0.0000E+00  0.0000E+00  0.0000E+00  0.0000E+00  0.0000E+00  0.0000E+00  0.0000E+00  0.0000E+00  0.0000E+00  0.2130E+03  0.4667E+02  0.0000E+00  0.0000E+00
REACH    4        0    12  0.3461E+00  0.2625E-01  0.2624E-01  0.1123E-04  0.0000E+00  0.1577E+03  0.1577E+03  0.4845E+03  0.1792E+03  0.1791E+03  0.3905E+02  0.3902E+02  0.8474E+01  0.8471E+01  0.0000E+00  0.8222E-01  0.0000E+00  0.0000E+00  0.5346E-01  0.8191E-01  0.1797E+01  0.1752E+01  0.2181E+05  0.2172E+05  0.4293E+03  0.2208E+03  0.0000E+00  0.0000E+00  0.0000E+00  0.0000E+00  0.0000E+00  0.0000E+00  0.0000E+00  0.0000E+00  0.0000E+00  0.0000E+00  0.0000E+00  0.0000E+00  0.0000E+00  0.0000E+00  0.0000E+00  0.0000E+00  0.0000E+00  0.1877E+03  0.3910E+02  0.0000E+00  0.0000E+00
REACH    5        0    12  0.2479E+00  0.1891E-01  0.1890E-01  0.1078E-04  0.0000E+00  0.1229E+03  0.1229E+03  0.5303E+03  0.1193E+03  0.1192E+03  0.2604E+02  0.2601E+02  0.5403E+01  0.5401E+01  0.0000E+00  0.5890E-01  0.0000E+00  0.0000E+00  0.3425E-01  0.5454E-01  0.1152E+01  0.1118E+01  0.1609E+05  0.1602E+05  0.3139E+03  0.1621E+03  0.0000E+00  0.0000E+00  0.0000E+00  0.0000E+00  0.0000E+00  0.0000E+00  0.0000E+00  0.0000E+00  0.0000E+00  0.0000E+00  0.0000E+00  0.0000E+00  0.0000E+00  0.0000E+00  0.0000E+00  0.0000E+00  0.0000E+00  0.1247E+03  0.2607E+02  0.0000E+00  0.0000E+00
REACH    6        0    12  0.2152E+00  0.1628E-01  0.1628E-01  0.3032E-05  0.0000E+00  0.9479E+02  0.9479E+02  0.4609E+03  0.1045E+03  0.1045E+03  0.2282E+02  0.2281E+02  0.5627E+01  0.5626E+01  0.0000E+00  0.1828E-01  0.0000E+00  0.0000E+00  0.4384E-01  0.5013E-01  0.9363E+00  0.9262E+00  0.1232E+05  0.1230E+05  0.2758E+03  0.1357E+03  0.0000E+00  0.0000E+00  0.0000E+00  0.0000E+00  0.0000E+00  0.0000E+00  0.0000E+00  0.0000E+00  0.0000E+00  0.0000E+00  0.0000E+00  0.0000E+00  0.0000E+00  0.0000E+00  0.0000E+00  0.0000E+00  0.0000E+00  0.1102E+03  0.2286E+02  0.0000E+00  0.0000E+00
REACH    7        0    12  0.8796E+00  0.6369E-01  0.6368E-01  0.8296E-05  0.0000E+00  0.3831E+03  0.4286E+02  0.1391E+03  0.3590E+03  0.3589E+03  0.8331E+02  0.8329E+02  0.3270E+02  0.3269E+02  0.1432E+00  0.2061E+00  0.0000E+00  0.5462E-05  0.5798E+00  0.6031E+00  0.3442E+01  0.3417E+01  0.7502E+05  0.7489E+05  0.5116E+03  0.4724E+03  0.0000E+00  0.0000E+00  0.0000E+00  0.0000E+00  0.0000E+00  0.0000E+00  0.0000E+00  0.0000E+00  0.0000E+00  0.0000E+00  0.0000E+00  0.0000E+00  0.0000E+00  0.0000E+00  0.0000E+00  0.0000E+00  0.0000E+00  0.3918E+03  0.8389E+02  0.0000E+00  0.0000E+00
REACH    8        0    12  0.1290E+01  0.9419E-01  0.9417E-01  0.1434E-04  0.0000E+00  0.2236E+03  0.2884E+02  0.8735E+02  0.5545E+03  0.5541E+03  0.1257E+03  0.1256E+03  0.4206E+02  0.4206E+02  0.3150E+00  0.5636E+00  0.5462E-05  0.2165E-04  0.6981E+00  0.7903E+00  0.4943E+01  0.4879E+01  0.9792E+05  0.9749E+05  0.7631E+03  0.7137E+03  0.0000E+00  0.0000E+00  0.0000E+00  0.0000E+00  0.0000E+00  0.0000E+00  0.0000E+00  0.0000E+00  0.0000E+00  0.0000E+00  0.0000E+00  0.0000E+00  0.0000E+00  0.0000E+00  0.0000E+00  0.0000E+00  0.0000E+00  0.5968E+03  0.1264E+03  0.0000E+00  0.0000E+00
REACH    9        0    12  0.1859E+01  0.1373E+00  0.1372E+00  0.5181E-04  0.0000E+00  0.2913E+03  0.1311E+03  0.1996E+03  0.8427E+03  0.8422E+03  0.1885E+03  0.1883E+03  0.5547E+02  0.5546E+02  0.6458E+00  0.1062E+01  0.2165E-04  0.3054E-03  0.9052E+00  0.1054E+01  0.7731E+01  0.7566E+01  0.1334E+06  0.1328E+06  0.1212E+04  0.1061E+04  0.0000E+00  0.0000E+00  0.0000E+00  0.0000E+00  0.0000E+00  0.0000E+00  0.0000E+00  0.0000E+00  0.0000E+00  0.0000E+00  0.0000E+00  0.0000E+00  0.0000E+00  0.0000E+00  0.0000E+00  0.0000E+00  0.0000E+00  0.8987E+03  0.1894E+03  0.0000E+00  0.0000E+00
REACH   10        0    12  0.2144E+01  0.1584E+00  0.1584E+00  0.1296E-04  0.0000E+00  0.2563E+03  0.1104E+03  0.1476E+03  0.9801E+03  0.9799E+03  0.2186E+03  0.2185E+03  0.6225E+02  0.6225E+02  0.1080E+01  0.1225E+01  0.3054E-03  0.3947E-03  0.1121E+01  0.1173E+01  0.9003E+01  0.8960E+01  0.1498E+06  0.1496E+06  0.1273E+04  0.1232E+04  0.0000E+00  0.0000E+00  0.0000E+00  0.0000E+00  0.0000E+00  0.0000E+00  0.0000E+00  0.0000E+00  0.0000E+00  0.0000E+00  0.0000E+00  0.0000E+00  0.0000E+00  0.0000E+00  0.0000E+00  0.0000E+00  0.0000E+00  0.1043E+04  0.2197E+03  0.0000E+00  0.0000E+00
REACH   11        0    12  0.2518E+01  0.1865E+00  0.1865E+00  0.1182E-04  0.0000E+00  0.3015E+03  0.1207E+03  0.1390E+03  0.1154E+04  0.1153E+04  0.2564E+03  0.2564E+03  0.7034E+02  0.7034E+02  0.1284E+01  0.1434E+01  0.3947E-03  0.5094E-03  0.1246E+01  0.1300E+01  0.1064E+02  0.1060E+02  0.1751E+06  0.1749E+06  0.1547E+04  0.1465E+04  0.0000E+00  0.0000E+00  0.0000E+00  0.0000E+00  0.0000E+00  0.0000E+00  0.0000E+00  0.0000E+00  0.0000E+00  0.0000E+00  0.0000E+00  0.0000E+00  0.0000E+00  0.0000E+00  0.0000E+00  0.0000E+00  0.0000E+00  0.1225E+04  0.2577E+03  0.0000E+00  0.0000E+00
REACH    1        0  2013  0.3586E+00  0.2425E-01  0.2423E-01  0.1657E-04  0.0000E+00  0.8676E+03  0.8676E+03  0.1882E+03  0.1560E+04  0.1558E+04  0.3406E+03  0.3402E+03  0.6382E+02  0.6379E+02  0.0000E+00  0.1013E+01  0.0000E+00  0.0000E+00  0.9630E+00  0.1305E+01  0.1568E+02  0.1515E+02  0.1284E+06  0.1276E+06  0.4857E+04  0.2990E+04  0.0000E+00  0.0000E+00  0.0000E+00  0.0000E+00  0.0000E+00  0.0000E+00  0.0000E+00  0.0000E+00  0.0000E+00  0.0000E+00  0.0000E+00  0.0000E+00  0.0000E+00  0.0000E+00  0.0000E+00  0.0000E+00  0.0000E+00  0.1623E+04  0.3415E+03  0.0000E+00  0.0000E+00
[...]
REACH    1        0    12  0.3586E+00  0.3755E-01  0.3753E-01  0.1732E-04  0.0000E+00  0.1599E+03  0.1599E+03  0.5579E+03  0.2574E+03  0.2572E+03  0.5578E+02  0.5571E+02  0.1262E+02  0.1262E+02  0.0000E+00  0.1657E+00  0.0000E+00  0.0000E+00  0.9279E-01  0.1505E+00  0.1539E+01  0.1472E+01  0.1897E+05  0.1886E+05  0.6089E+03  0.1938E+03  0.0000E+00  0.0000E+00  0.0000E+00  0.0000E+00  0.0000E+00  0.0000E+00  0.0000E+00  0.0000E+00  0.0000E+00  0.0000E+00  0.0000E+00  0.0000E+00  0.0000E+00  0.0000E+00  0.0000E+00  0.0000E+00  0.0000E+00  0.2700E+03  0.5586E+02  0.0000E+00  0.0000E+00
REACH    2        0    12  0.3300E+00  0.3435E-01  0.3434E-01  0.1089E-04  0.0000E+00  0.1538E+03  0.1538E+03  0.5804E+03  0.2067E+03  0.2066E+03  0.4794E+02  0.4790E+02  0.1951E+02  0.1951E+02  0.0000E+00  0.8614E-01  0.0000E+00  0.0000E+00  0.2901E+00  0.3220E+00  0.1429E+01  0.1386E+01  0.2713E+05  0.2702E+05  0.5458E+03  0.1236E+03  0.0000E+00  0.0000E+00  0.0000E+00  0.0000E+00  0.0000E+00  0.0000E+00  0.0000E+00  0.0000E+00  0.0000E+00  0.0000E+00  0.0000E+00  0.0000E+00  0.0000E+00  0.0000E+00  0.0000E+00  0.0000E+00  0.0000E+00  0.2262E+03  0.4822E+02  0.0000E+00  0.0000E+00
REACH    3        0    12  0.4975E+00  0.4910E-01  0.4908E-01  0.1620E-04  0.0000E+00  0.2369E+03  0.2369E+03  0.6868E+03  0.2883E+03  0.2881E+03  0.6807E+02  0.6801E+02  0.2645E+02  0.2644E+02  0.0000E+00  0.1302E+00  0.0000E+00  0.0000E+00  0.5496E+00  0.5985E+00  0.2472E+01  0.2391E+01  0.5244E+05  0.5221E+05  0.7187E+03  0.2163E+03  0.0000E+00  0.0000E+00  0.0000E+00  0.0000E+00  0.0000E+00  0.0000E+00  0.0000E+00  0.0000E+00  0.0000E+00  0.0000E+00  0.0000E+00  0.0000E+00  0.0000E+00  0.0000E+00  0.0000E+00  0.0000E+00  0.0000E+00  0.3147E+03  0.6861E+02  0.0000E+00  0.0000E+00
REACH    4        0    12  0.3461E+00  0.3719E-01  0.3718E-01  0.1070E-04  0.0000E+00  0.1512E+03  0.1512E+03  0.5450E+03  0.2563E+03  0.2561E+03  0.5568E+02  0.5563E+02  0.1323E+02  0.1323E+02  0.0000E+00  0.1192E+00  0.0000E+00  0.0000E+00  0.1041E+00  0.1458E+00  0.1834E+01  0.1783E+01  0.1978E+05  0.1969E+05  0.5642E+03  0.1896E+03  0.0000E+00  0.0000E+00  0.0000E+00  0.0000E+00  0.0000E+00  0.0000E+00  0.0000E+00  0.0000E+00  0.0000E+00  0.0000E+00  0.0000E+00  0.0000E+00  0.0000E+00  0.0000E+00  0.0000E+00  0.0000E+00  0.0000E+00  0.2695E+03  0.5578E+02  0.0000E+00  0.0000E+00
REACH    5        0    12  0.2479E+00  0.2675E-01  0.2674E-01  0.8937E-05  0.0000E+00  0.1247E+03  0.1247E+03  0.6234E+03  0.1905E+03  0.1904E+03  0.4143E+02  0.4138E+02  0.8648E+01  0.8645E+01  0.0000E+00  0.9303E-01  0.0000E+00  0.0000E+00  0.7056E-01  0.1032E+00  0.1338E+01  0.1294E+01  0.1540E+05  0.1533E+05  0.4112E+03  0.1414E+03  0.0000E+00  0.0000E+00  0.0000E+00  0.0000E+00  0.0000E+00  0.0000E+00  0.0000E+00  0.0000E+00  0.0000E+00  0.0000E+00  0.0000E+00  0.0000E+00  0.0000E+00  0.0000E+00  0.0000E+00  0.0000E+00  0.0000E+00  0.1991E+03  0.4149E+02  0.0000E+00  0.0000E+00
REACH    6        0    12  0.2152E+00  0.2308E-01  0.2307E-01  0.2943E-05  0.0000E+00  0.9486E+02  0.9486E+02  0.5350E+03  0.1575E+03  0.1575E+03  0.3418E+02  0.3417E+02  0.8787E+01  0.8786E+01  0.0000E+00  0.2821E-01  0.0000E+00  0.0000E+00  0.8275E-01  0.9259E-01  0.1030E+01  0.1017E+01  0.1162E+05  0.1160E+05  0.3656E+03  0.1138E+03  0.0000E+00  0.0000E+00  0.0000E+00  0.0000E+00  0.0000E+00  0.0000E+00  0.0000E+00  0.0000E+00  0.0000E+00  0.0000E+00  0.0000E+00  0.0000E+00  0.0000E+00  0.0000E+00  0.0000E+00  0.0000E+00  0.0000E+00  0.1663E+03  0.3426E+02  0.0000E+00  0.0000E+00
REACH    7        0    12  0.8796E+00  0.8905E-01  0.8904E-01  0.7855E-05  0.0000E+00  0.4147E+03  0.6246E+02  0.1614E+03  0.5332E+03  0.5331E+03  0.1243E+03  0.1242E+03  0.4762E+02  0.4762E+02  0.2163E+00  0.3160E+00  0.0000E+00  0.5108E-05  0.9355E+00  0.9732E+00  0.4029E+01  0.3993E+01  0.8211E+05  0.8197E+05  0.4287E+03  0.3627E+03  0.0000E+00  0.0000E+00  0.0000E+00  0.0000E+00  0.0000E+00  0.0000E+00  0.0000E+00  0.0000E+00  0.0000E+00  0.0000E+00  0.0000E+00  0.0000E+00  0.0000E+00  0.0000E+00  0.0000E+00  0.0000E+00  0.0000E+00  0.5810E+03  0.1252E+03  0.0000E+00  0.0000E+00
REACH    8        0    12  0.1290E+01  0.1321E+00  0.1320E+00  0.1675E-04  0.0000E+00  0.2432E+03  0.4344E+02  0.9686E+02  0.8271E+03  0.8266E+03  0.1879E+03  0.1878E+03  0.6195E+02  0.6194E+02  0.4817E+00  0.8280E+00  0.5108E-05  0.1976E-04  0.1143E+01  0.1273E+01  0.5719E+01  0.5647E+01  0.1035E+06  0.1031E+06  0.6414E+03  0.5473E+03  0.0000E+00  0.0000E+00  0.0000E+00  0.0000E+00  0.0000E+00  0.0000E+00  0.0000E+00  0.0000E+00  0.0000E+00  0.0000E+00  0.0000E+00  0.0000E+00  0.0000E+00  0.0000E+00  0.0000E+00  0.0000E+00  0.0000E+00  0.8893E+03  0.1890E+03  0.0000E+00  0.0000E+00
REACH    9        0    12  0.1859E+01  0.1931E+00  0.1931E+00  0.4858E-04  0.0000E+00  0.2995E+03  0.2022E+03  0.2337E+03  0.1251E+04  0.1250E+04  0.2799E+03  0.2796E+03  0.8310E+02  0.8308E+02  0.9472E+00  0.1570E+01  0.1976E-04  0.4421E-03  0.1485E+01  0.1711E+01  0.8662E+01  0.8450E+01  0.1362E+06  0.1356E+06  0.1101E+04  0.8178E+03  0.0000E+00  0.0000E+00  0.0000E+00  0.0000E+00  0.0000E+00  0.0000E+00  0.0000E+00  0.0000E+00  0.0000E+00  0.0000E+00  0.0000E+00  0.0000E+00  0.0000E+00  0.0000E+00  0.0000E+00  0.0000E+00  0.0000E+00  0.1334E+04  0.2813E+03  0.0000E+00  0.0000E+00
REACH   10        0    12  0.2144E+01  0.2230E+00  0.2230E+00  0.1214E-04  0.0000E+00  0.3276E+03  0.1689E+03  0.1744E+03  0.1456E+04  0.1455E+04  0.3244E+03  0.3243E+03  0.9368E+02  0.9368E+02  0.1598E+01  0.1817E+01  0.4421E-03  0.4462E-03  0.1829E+01  0.1909E+01  0.1002E+02  0.9966E+01  0.1518E+06  0.1515E+06  0.1028E+04  0.9493E+03  0.0000E+00  0.0000E+00  0.0000E+00  0.0000E+00  0.0000E+00  0.0000E+00  0.0000E+00  0.0000E+00  0.0000E+00  0.0000E+00  0.0000E+00  0.0000E+00  0.0000E+00  0.0000E+00  0.0000E+00  0.0000E+00  0.0000E+00  0.1551E+04  0.3262E+03  0.0000E+00  0.0000E+00
REACH   11        0    12  0.2518E+01  0.2624E+00  0.2624E+00  0.1109E-04  0.0000E+00  0.3592E+03  0.1817E+03  0.1617E+03  0.1734E+04  0.1734E+04  0.3850E+03  0.3849E+03  0.1061E+03  0.1061E+03  0.1910E+01  0.2144E+01  0.4462E-03  0.5645E-03  0.2047E+01  0.2132E+01  0.1204E+02  0.1199E+02  0.1757E+06  0.1755E+06  0.1288E+04  0.1133E+04  0.0000E+00  0.0000E+00  0.0000E+00  0.0000E+00  0.0000E+00  0.0000E+00  0.0000E+00  0.0000E+00  0.0000E+00  0.0000E+00  0.0000E+00  0.0000E+00  0.0000E+00  0.0000E+00  0.0000E+00  0.0000E+00  0.0000E+00  0.1842E+04  0.3870E+03  0.0000E+00  0.0000E+00
REACH    1        0  2016  0.3586E+00  0.2409E-01  0.2407E-01  0.1946E-04  0.0000E+00  0.2649E+03  0.2649E+03  0.7516E+02  0.5243E+03  0.5237E+03  0.1135E+03  0.1133E+03  0.4969E+02  0.4965E+02  0.0000E+00  0.4629E+00  0.0000E+00  0.0000E+00  0.8555E+00  0.9955E+00  0.4353E+01  0.4165E+01  0.3757E+05  0.3729E+05  0.5147E+04  0.3540E+04  0.0000E+00  0.0000E+00  0.0000E+00  0.0000E+00  0.0000E+00  0.0000E+00  0.0000E+00  0.0000E+00  0.0000E+00  0.0000E+00  0.0000E+00  0.0000E+00  0.0000E+00  0.0000E+00  0.0000E+00  0.0000E+00  0.0000E+00  0.5738E+03  0.1143E+03  0.0000E+00  0.0000E+00
REACH    2        0  2016  0.3300E+00  0.2198E-01  0.2197E-01  0.1231E-04  0.0000E+00  0.4015E+03  0.4015E+03  0.1277E+03  0.7155E+03  0.7150E+03  0.1579E+03  0.1578E+03  0.1806E+03  0.1805E+03  0.0000E+00  0.3991E+00  0.0000E+00  0.0000E+00  0.1970E+01  0.2099E+01  0.9374E+01  0.9078E+01  0.1089E+06  0.1084E+06  0.4498E+04  0.1637E+04  0.0000E+00  0.0000E+00  0.0000E+00  0.0000E+00  0.0000E+00  0.0000E+00  0.0000E+00  0.0000E+00  0.0000E+00  0.0000E+00  0.0000E+00  0.0000E+00  0.0000E+00  0.0000E+00  0.0000E+00  0.0000E+00  0.0000E+00  0.8959E+03  0.1599E+03  0.0000E+00  0.0000E+00
REACH    3        0  2016  0.4975E+00  0.3323E-01  0.3321E-01  0.1732E-04  0.0000E+00  0.7300E+03  0.7300E+03  0.1823E+03  0.1194E+04  0.1193E+04  0.2627E+03  0.2624E+03  0.3178E+03  0.3176E+03  0.0000E+00  0.5928E+00  0.0000E+00  0.0000E+00  0.3612E+01  0.3802E+01  0.2249E+02  0.2181E+02  0.2377E+06  0.2367E+06  0.6542E+04  0.2876E+04  0.0000E+00  0.0000E+00  0.0000E+00  0.0000E+00  0.0000E+00  0.0000E+00  0.0000E+00  0.0000E+00  0.0000E+00  0.0000E+00  0.0000E+00  0.0000E+00  0.0000E+00  0.0000E+00  0.0000E+00  0.0000E+00  0.0000E+00  0.1511E+04  0.2662E+03  0.0000E+00  0.0000E+00
REACH    4        0  2016  0.3461E+00  0.2336E-01  0.2334E-01  0.1228E-04  0.0000E+00  0.2536E+03  0.2536E+03  0.7654E+02  0.5090E+03  0.5086E+03  0.1106E+03  0.1105E+03  0.4710E+02  0.4707E+02  0.0000E+00  0.3017E+00  0.0000E+00  0.0000E+00  0.8717E+00  0.9643E+00  0.5088E+01  0.4949E+01  0.3863E+05  0.3844E+05  0.4881E+04  0.3398E+04  0.0000E+00  0.0000E+00  0.0000E+00  0.0000E+00  0.0000E+00  0.0000E+00  0.0000E+00  0.0000E+00  0.0000E+00  0.0000E+00  0.0000E+00  0.0000E+00  0.0000E+00  0.0000E+00  0.0000E+00  0.0000E+00  0.0000E+00  0.5560E+03  0.1114E+03  0.0000E+00  0.0000E+00
REACH    5        0  2016  0.2479E+00  0.1678E-01  0.1677E-01  0.1048E-04  0.0000E+00  0.2041E+03  0.2041E+03  0.8463E+02  0.3722E+03  0.3719E+03  0.8093E+02  0.8084E+02  0.3281E+02  0.3278E+02  0.0000E+00  0.2405E+00  0.0000E+00  0.0000E+00  0.5836E+00  0.6573E+00  0.3524E+01  0.3409E+01  0.2912E+05  0.2897E+05  0.3500E+04  0.2405E+04  0.0000E+00  0.0000E+00  0.0000E+00  0.0000E+00  0.0000E+00  0.0000E+00  0.0000E+00  0.0000E+00  0.0000E+00  0.0000E+00  0.0000E+00  0.0000E+00  0.0000E+00  0.0000E+00  0.0000E+00  0.0000E+00  0.0000E+00  0.4049E+03  0.8149E+02  0.0000E+00  0.0000E+00
REACH    6        0  2016  0.2152E+00  0.1445E-01  0.1444E-01  0.3319E-05  0.0000E+00  0.1576E+03  0.1576E+03  0.7270E+02  0.3143E+03  0.3142E+03  0.6815E+02  0.6812E+02  0.3906E+02  0.3905E+02  0.0000E+00  0.7415E-01  0.0000E+00  0.0000E+00  0.5956E+00  0.6182E+00  0.2770E+01  0.2736E+01  0.2264E+05  0.2259E+05  0.3056E+04  0.2061E+04  0.0000E+00  0.0000E+00  0.0000E+00  0.0000E+00  0.0000E+00  0.0000E+00  0.0000E+00  0.0000E+00  0.0000E+00  0.0000E+00  0.0000E+00  0.0000E+00  0.0000E+00  0.0000E+00  0.0000E+00  0.0000E+00  0.0000E+00  0.3533E+03  0.6874E+02  0.0000E+00  0.0000E+00
REACH    7        0  2016  0.8796E+00  0.5874E-01  0.5873E-01  0.8860E-05  0.0000E+00  0.1170E+04  0.4235E+03  0.1157E+03  0.1982E+04  0.1982E+04  0.4364E+03  0.4362E+03  0.5050E+03  0.5049E+03  0.9919E+00  0.1449E+01  0.0000E+00  0.1618E-03  0.6028E+01  0.6183E+01  0.3154E+02  0.3124E+02  0.3505E+06  0.3497E+06  0.5268E+04  0.4761E+04  0.0000E+00  0.0000E+00  0.0000E+00  0.0000E+00  0.0000E+00  0.0000E+00  0.0000E+00  0.0000E+00  0.0000E+00  0.0000E+00  0.0000E+00  0.0000E+00  0.0000E+00  0.0000E+00  0.0000E+00  0.0000E+00  0.0000E+00  0.2488E+04  0.4424E+03  0.0000E+00  0.0000E+00
REACH    8        0  2016  0.1290E+01  0.8629E-01  0.8628E-01  0.1248E-04  0.0000E+00  0.7224E+03  0.3502E+03  0.7490E+02  0.2576E+04  0.2575E+04  0.5648E+03  0.5644E+03  0.5611E+03  0.5610E+03  0.1912E+01  0.2927E+01  0.1618E-03  0.6086E-03  0.7346E+01  0.7701E+01  0.3606E+02  0.3567E+02  0.3920E+06  0.3905E+06  0.9047E+04  0.6987E+04  0.0000E+00  0.0000E+00  0.0000E+00  0.0000E+00  0.0000E+00  0.0000E+00  0.0000E+00  0.0000E+00  0.0000E+00  0.0000E+00  0.0000E+00  0.0000E+00  0.0000E+00  0.0000E+00  0.0000E+00  0.0000E+00  0.0000E+00  0.3139E+04  0.5721E+03  0.0000E+00  0.0000E+00
REACH    9        0  2016  0.1859E+01  0.1247E+00  0.1246E+00  0.5233E-04  0.0000E+00  0.7766E+03  0.1469E+04  0.1601E+03  0.3412E+04  0.3410E+04  0.7463E+03  0.7456E+03  0.6374E+03  0.6371E+03  0.3229E+01  0.5049E+01  0.6086E-03  0.2688E-02  0.9216E+01  0.9806E+01  0.4388E+02  0.4298E+02  0.4546E+06  0.4525E+06  0.1353E+05  0.1007E+05  0.0000E+00  0.0000E+00  0.0000E+00  0.0000E+00  0.0000E+00  0.0000E+00  0.0000E+00  0.0000E+00  0.0000E+00  0.0000E+00  0.0000E+00  0.0000E+00  0.0000E+00  0.0000E+00  0.0000E+00  0.0000E+00  0.0000E+00  0.4052E+04  0.7554E+03  0.0000E+00  0.0000E+00
REACH   10        0  2016  0.2144E+01  0.1437E+00  0.1437E+00  0.1384E-04  0.0000E+00  0.1678E+04  0.1123E+04  0.1159E+03  0.3819E+04  0.3818E+04  0.8345E+03  0.8342E+03  0.6833E+03  0.6832E+03  0.5123E+01  0.5832E+01  0.2688E-02  0.3746E-02  0.1064E+02  0.1087E+02  0.4704E+02  0.4677E+02  0.4837E+06  0.4829E+06  0.1309E+05  0.1164E+05  0.0000E+00  0.0000E+00  0.0000E+00  0.0000E+00  0.0000E+00  0.0000E+00  0.0000E+00  0.0000E+00  0.0000E+00  0.0000E+00  0.0000E+00  0.0000E+00  0.0000E+00  0.0000E+00  0.0000E+00  0.0000E+00  0.0000E+00  0.4507E+04  0.8451E+03  0.0000E+00  0.0000E+00
REACH   11        0  2016  0.2518E+01  0.1690E+00  0.1690E+00  0.1264E-04  0.0000E+00  0.1440E+04  0.1208E+04  0.1092E+03  0.4378E+04  0.4378E+04  0.9564E+03  0.9561E+03  0.7330E+03  0.7329E+03  0.6073E+01  0.6793E+01  0.3746E-02  0.4929E-02  0.1184E+02  0.1209E+02  0.5246E+02  0.5223E+02  0.5298E+06  0.5290E+06  0.1582E+05  0.1377E+05  0.0000E+00  0.0000E+00  0.0000E+00  0.0000E+00  0.0000E+00  0.0000E+00  0.0000E+00  0.0000E+00  0.0000E+00  0.0000E+00  0.0000E+00  0.0000E+00  0.0000E+00  0.0000E+00  0.0000E+00  0.0000E+00  0.0000E+00  0.5117E+04  0.9682E+03  0.0000E+00  0.0000E+00
REACH    1        0   4.0  0.3586E+00  0.2789E-01  0.2787E-01  0.1902E-04  0.0000E+00  0.8350E+03  0.8350E+03  0.1527E+03  0.1555E+04  0.1553E+04  0.3384E+03  0.3379E+03  0.6292E+02  0.6288E+02  0.0000E+00  0.1144E+01  0.0000E+00  0.0000E+00  0.1156E+01  0.1543E+01  0.1798E+02  0.1734E+02  0.1401E+06  0.1392E+06  0.5402E+04  0.3404E+04  0.0000E+00  0.0000E+00  0.0000E+00  0.0000E+00  0.0000E+00  0.0000E+00  0.0000E+00  0.0000E+00  0.0000E+00  0.0000E+00  0.0000E+00  0.0000E+00  0.0000E+00  0.0000E+00  0.0000E+00  0.0000E+00  0.0000E+00  0.1617E+04  0.3394E+03  0.0000E+00  0.0000E+00
REACH    2        0   4.0  0.3300E+00  0.2553E-01  0.2552E-01  0.1198E-04  0.0000E+00  0.9058E+03  0.9058E+03  0.1951E+03  0.1541E+04  0.1540E+04  0.3403E+03  0.3400E+03  0.2062E+03  0.2061E+03  0.0000E+00  0.7150E+00  0.0000E+00  0.0000E+00  0.3119E+01  0.3364E+01  0.2126E+02  0.2075E+02  0.2250E+06  0.2241E+06  0.4776E+04  0.1849E+04  0.0000E+00  0.0000E+00  0.0000E+00  0.0000E+00  0.0000E+00  0.0000E+00  0.0000E+00  0.0000E+00  0.0000E+00  0.0000E+00  0.0000E+00  0.0000E+00  0.0000E+00  0.0000E+00  0.0000E+00  0.0000E+00  0.0000E+00  0.1746E+04  0.3434E+03  0.0000E+00  0.0000E+00
REACH    3        0   4.0  0.4975E+00  0.3829E-01  0.3827E-01  0.1728E-04  0.0000E+00  0.1425E+04  0.1425E+04  0.2441E+03  0.2289E+04  0.2288E+04  0.5088E+03  0.5084E+03  0.3445E+03  0.3443E+03  0.0000E+00  0.1060E+01  0.0000E+00  0.0000E+00  0.5772E+01  0.6136E+01  0.4144E+02  0.4046E+02  0.4147E+06  0.4129E+06  0.6857E+04  0.3097E+04  0.0000E+00  0.0000E+00  0.0000E+00  0.0000E+00  0.0000E+00  0.0000E+00  0.0000E+00  0.0000E+00  0.0000E+00  0.0000E+00  0.0000E+00  0.0000E+00  0.0000E+00  0.0000E+00  0.0000E+00  0.0000E+00  0.0000E+00  0.2633E+04  0.5145E+03  0.0000E+00  0.0000E+00
REACH    4        0   4.0  0.3461E+00  0.2708E-01  0.2706E-01  0.1237E-04  0.0000E+00  0.7682E+03  0.7682E+03  0.1484E+03  0.1444E+04  0.1443E+04  0.3158E+03  0.3154E+03  0.6026E+02  0.6023E+02  0.0000E+00  0.8689E+00  0.0000E+00  0.0000E+00  0.1158E+01  0.1458E+01  0.1921E+02  0.1869E+02  0.1319E+06  0.1311E+06  0.5046E+04  0.3237E+04  0.0000E+00  0.0000E+00  0.0000E+00  0.0000E+00  0.0000E+00  0.0000E+00  0.0000E+00  0.0000E+00  0.0000E+00  0.0000E+00  0.0000E+00  0.0000E+00  0.0000E+00  0.0000E+00  0.0000E+00  0.0000E+00  0.0000E+00  0.1504E+04  0.3169E+03  0.0000E+00  0.0000E+00
REACH    5        0   4.0  0.2479E+00  0.1948E-01  0.1947E-01  0.1055E-04  0.0000E+00  0.6225E+03  0.6225E+03  0.1669E+03  0.1037E+04  0.1036E+04  0.2271E+03  0.2268E+03  0.4188E+02  0.4186E+02  0.0000E+00  0.7292E+00  0.0000E+00  0.0000E+00  0.7796E+00  0.1032E+01  0.1360E+02  0.1314E+02  0.1023E+06  0.1016E+06  0.3649E+04  0.2330E+04  0.0000E+00  0.0000E+00  0.0000E+00  0.0000E+00  0.0000E+00  0.0000E+00  0.0000E+00  0.0000E+00  0.0000E+00  0.0000E+00  0.0000E+00  0.0000E+00  0.0000E+00  0.0000E+00  0.0000E+00  0.0000E+00  0.0000E+00  0.1078E+04  0.2278E+03  0.0000E+00  0.0000E+00
REACH    6        0   4.0  0.2152E+00  0.1679E-01  0.1678E-01  0.3362E-05  0.0000E+00  0.4940E+03  0.4940E+03  0.1464E+03  0.9008E+03  0.9005E+03  0.1968E+03  0.1967E+03  0.4733E+02  0.4732E+02  0.0000E+00  0.2257E+00  0.0000E+00  0.0000E+00  0.8480E+00  0.9257E+00  0.1096E+02  0.1082E+02  0.8270E+05  0.8250E+05  0.3208E+04  0.1992E+04  0.0000E+00  0.0000E+00  0.0000E+00  0.0000E+00  0.0000E+00  0.0000E+00  0.0000E+00  0.0000E+00  0.0000E+00  0.0000E+00  0.0000E+00  0.0000E+00  0.0000E+00  0.0000E+00  0.0000E+00  0.0000E+00  0.0000E+00  0.9480E+03  0.1976E+03  0.0000E+00  0.0000E+00
REACH    7        0   4.0  0.8796E+00  0.6792E-01  0.6791E-01  0.8928E-05  0.0000E+00  0.2453E+04  0.5083E+03  0.1234E+03  0.4044E+04  0.4042E+04  0.8957E+03  0.8953E+03  0.5591E+03  0.5590E+03  0.1775E+01  0.2679E+01  0.0000E+00  0.1706E-03  0.9672E+01  0.9990E+01  0.6396E+02  0.6346E+02  0.6570E+06  0.6557E+06  0.5734E+04  0.5227E+04  0.0000E+00  0.0000E+00  0.0000E+00  0.0000E+00  0.0000E+00  0.0000E+00  0.0000E+00  0.0000E+00  0.0000E+00  0.0000E+00  0.0000E+00  0.0000E+00  0.0000E+00  0.0000E+00  0.0000E+00  0.0000E+00  0.0000E+00  0.4604E+04  0.9053E+03  0.0000E+00  0.0000E+00
REACH    8        0   4.0  0.1290E+01  0.9984E-01  0.9982E-01  0.1278E-04  0.0000E+00  0.1448E+04  0.4282E+03  0.8000E+02  0.5800E+04  0.5797E+04  0.1278E+04  0.1277E+04  0.6303E+03  0.6302E+03  0.3822E+01  0.5914E+01  0.1706E-03  0.8503E-03  0.1175E+02  0.1250E+02  0.8348E+02  0.8273E+02  0.8126E+06  0.8098E+06  0.9404E+04  0.7765E+04  0.0000E+00  0.0000E+00  0.0000E+00  0.0000E+00  0.0000E+00  0.0000E+00  0.0000E+00  0.0000E+00  0.0000E+00  0.0000E+00  0.0000E+00  0.0000E+00  0.0000E+00  0.0000E+00  0.0000E+00  0.0000E+00  0.0000E+00  0.6433E+04  0.1289E+04  0.0000E+00  0.0000E+00
REACH    9        0   4.0  0.1859E+01  0.1444E+00  0.1443E+00  0.5212E-04  0.0000E+00  0.1720E+04  0.1711E+04  0.1722E+03  0.8162E+04  0.8157E+04  0.1794E+04  0.1793E+04  0.7278E+03  0.7276E+03  0.6783E+01  0.1067E+02  0.8503E-03  0.4152E-02  0.1469E+02  0.1604E+02  0.1138E+03  0.1120E+03  0.1029E+07  0.1024E+07  0.1427E+05  0.1133E+05  0.0000E+00  0.0000E+00  0.0000E+00  0.0000E+00  0.0000E+00  0.0000E+00  0.0000E+00  0.0000E+00  0.0000E+00  0.0000E+00  0.0000E+00  0.0000E+00  0.0000E+00  0.0000E+00  0.0000E+00  0.0000E+00  0.0000E+00  0.8895E+04  0.1809E+04  0.0000E+00  0.0000E+00
REACH   10        0   4.0  0.2144E+01  0.1665E+00  0.1665E+00  0.1364E-04  0.0000E+00  0.2358E+04  0.1345E+04  0.1261E+03  0.9321E+04  0.9319E+04  0.2047E+04  0.2047E+04  0.7840E+03  0.7839E+03  0.1090E+02  0.1258E+02  0.4152E-02  0.5739E-02  0.1727E+02  0.1786E+02  0.1273E+03  0.1267E+03  0.1135E+07  0.1133E+07  0.1430E+05  0.1313E+05  0.0000E+00  0.0000E+00  0.0000E+00  0.0000E+00  0.0000E+00  0.0000E+00  0.0000E+00  0.0000E+00  0.0000E+00  0.0000E+00  0.0000E+00  0.0000E+00  0.0000E+00  0.0000E+00  0.0000E+00  0.0000E+00  0.0000E+00  0.1012E+05  0.2065E+04  0.0000E+00  0.0000E+00
REACH   11        0   4.0  0.2518E+01  0.1957E+00  0.1957E+00  0.1260E-04  0.0000E+00  0.2321E+04  0.1444E+04  0.1174E+03  0.1088E+05  0.1087E+05  0.2388E+04  0.2387E+04  0.8466E+03  0.8465E+03  0.1331E+02  0.1507E+02  0.5739E-02  0.7699E-02  0.1931E+02  0.1993E+02  0.1471E+03  0.1465E+03  0.1295E+07  0.1293E+07  0.1731E+05  0.1559E+05  0.0000E+00  0.0000E+00  0.0000E+00  0.0000E+00  0.0000E+00  0.0000E+00  0.0000E+00  0.0000E+00  0.0000E+00  0.0000E+00  0.0000E+00  0.0000E+00  0.0000E+00  0.0000E+00  0.0000E+00  0.0000E+00  0.0000E+00  0.1174E+05  0.2407E+04  0.0000E+00  0.0000E+00
