1
    SWAT Dec 23 2016    VER 2016/Rev 664                                                                 0/ 0/   0      0: 0: 0

    General Input/Output section (file.cio):                                        
    2/11/2020 20:48:05 QSWAT Workflow v1.5.2                                        
                                                                                    
         Number of years in run:   12
         Area of watershed:        1.468 km2
1
    SWAT Dec 23 2016    VER 2016/Rev 664                                            

    General Input/Output section (file.cio):                                        
    2/11/2020 20:48:05 QSWAT Workflow v1.5.2                                        
                                                                                    
Annual Summary for Watershed in year    1 of simulation

UNIT                                    PERCO    TILE                           WATER     SED     NO3     NO3     NO3     NO3        N       P       P
TIME     PREC    SURQ    LATQ     GWQ    LATE       Q     SW       ET     PET   YIELD   YIELD    SURQ    LATQ    PERC    CROP  ORGANIC SOLUBLE ORGANIC TILENO3
         (mm)    (mm)    (mm)    (mm)    (mm)    (mm)    (mm)    (mm)    (mm)    (mm)   (t/ha)  ------------------(kg nutrient/ha)-------------------- (kg/ha)
1
    SWAT Dec 23 2016    VER 2016/Rev 664                                            

    General Input/Output section (file.cio):                                        
    2/11/2020 20:48:05 QSWAT Workflow v1.5.2                                        
                                                                                    
Annual Summary for Watershed in year    2 of simulation

UNIT                                    PERCO    TILE                           WATER     SED     NO3     NO3     NO3     NO3        N       P       P
TIME     PREC    SURQ    LATQ     GWQ    LATE       Q     SW       ET     PET   YIELD   YIELD    SURQ    LATQ    PERC    CROP  ORGANIC SOLUBLE ORGANIC TILENO3
         (mm)    (mm)    (mm)    (mm)    (mm)    (mm)    (mm)    (mm)    (mm)    (mm)   (t/ha)  ------------------(kg nutrient/ha)-------------------- (kg/ha)
1
    SWAT Dec 23 2016    VER 2016/Rev 664                                            

    General Input/Output section (file.cio):                                        
    2/11/2020 20:48:05 QSWAT Workflow v1.5.2                                        
                                                                                    
Annual Summary for Watershed in year    3 of simulation

UNIT                                    PERCO    TILE                           WATER     SED     NO3     NO3     NO3     NO3        N       P       P
TIME     PREC    SURQ    LATQ     GWQ    LATE       Q     SW       ET     PET   YIELD   YIELD    SURQ    LATQ    PERC    CROP  ORGANIC SOLUBLE ORGANIC TILENO3
         (mm)    (mm)    (mm)    (mm)    (mm)    (mm)    (mm)    (mm)    (mm)    (mm)   (t/ha)  ------------------(kg nutrient/ha)-------------------- (kg/ha)
1
    SWAT Dec 23 2016    VER 2016/Rev 664                                            

    General Input/Output section (file.cio):                                        
    2/11/2020 20:48:05 QSWAT Workflow v1.5.2                                        
                                                                                    
Annual Summary for Watershed in year    4 of simulation

UNIT                                    PERCO    TILE                           WATER     SED     NO3     NO3     NO3     NO3        N       P       P
TIME     PREC    SURQ    LATQ     GWQ    LATE       Q     SW       ET     PET   YIELD   YIELD    SURQ    LATQ    PERC    CROP  ORGANIC SOLUBLE ORGANIC TILENO3
         (mm)    (mm)    (mm)    (mm)    (mm)    (mm)    (mm)    (mm)    (mm)    (mm)   (t/ha)  ------------------(kg nutrient/ha)-------------------- (kg/ha)
1
    SWAT Dec 23 2016    VER 2016/Rev 664                                            

    General Input/Output section (file.cio):                                        
    2/11/2020 20:48:05 QSWAT Workflow v1.5.2                                        
                                                                                    
Annual Summary for Watershed in year    5 of simulation

UNIT                                    PERCO    TILE                           WATER     SED     NO3     NO3     NO3     NO3        N       P       P
TIME     PREC    SURQ    LATQ     GWQ    LATE       Q     SW       ET     PET   YIELD   YIELD    SURQ    LATQ    PERC    CROP  ORGANIC SOLUBLE ORGANIC TILENO3
         (mm)    (mm)    (mm)    (mm)    (mm)    (mm)    (mm)    (mm)    (mm)    (mm)   (t/ha)  ------------------(kg nutrient/ha)-------------------- (kg/ha)
1
    SWAT Dec 23 2016    VER 2016/Rev 664                                            

    General Input/Output section (file.cio):                                        
    2/11/2020 20:48:05 QSWAT Workflow v1.5.2                                        
                                                                                    
Annual Summary for Watershed in year    6 of simulation

UNIT                                    PERCO    TILE                           WATER     SED     NO3     NO3     NO3     NO3        N       P       P
TIME     PREC    SURQ    LATQ     GWQ    LATE       Q     SW       ET     PET   YIELD   YIELD    SURQ    LATQ    PERC    CROP  ORGANIC SOLUBLE ORGANIC TILENO3
         (mm)    (mm)    (mm)    (mm)    (mm)    (mm)    (mm)    (mm)    (mm)    (mm)   (t/ha)  ------------------(kg nutrient/ha)-------------------- (kg/ha)
1
    SWAT Dec 23 2016    VER 2016/Rev 664                                            

    General Input/Output section (file.cio):                                        
    2/11/2020 20:48:05 QSWAT Workflow v1.5.2                                        
                                                                                    
Annual Summary for Watershed in year    7 of simulation

UNIT                                    PERCO    TILE                           WATER     SED     NO3     NO3     NO3     NO3        N       P       P
TIME     PREC    SURQ    LATQ     GWQ    LATE       Q     SW       ET     PET   YIELD   YIELD    SURQ    LATQ    PERC    CROP  ORGANIC SOLUBLE ORGANIC TILENO3
         (mm)    (mm)    (mm)    (mm)    (mm)    (mm)    (mm)    (mm)    (mm)    (mm)   (t/ha)  ------------------(kg nutrient/ha)-------------------- (kg/ha)
1
    SWAT Dec 23 2016    VER 2016/Rev 664                                            

    General Input/Output section (file.cio):                                        
    2/11/2020 20:48:05 QSWAT Workflow v1.5.2                                        
                                                                                    
Annual Summary for Watershed in year    8 of simulation

UNIT                                    PERCO    TILE                           WATER     SED     NO3     NO3     NO3     NO3        N       P       P
TIME     PREC    SURQ    LATQ     GWQ    LATE       Q     SW       ET     PET   YIELD   YIELD    SURQ    LATQ    PERC    CROP  ORGANIC SOLUBLE ORGANIC TILENO3
         (mm)    (mm)    (mm)    (mm)    (mm)    (mm)    (mm)    (mm)    (mm)    (mm)   (t/ha)  ------------------(kg nutrient/ha)-------------------- (kg/ha)
1
    SWAT Dec 23 2016    VER 2016/Rev 664                                            

    General Input/Output section (file.cio):                                        
    2/11/2020 20:48:05 QSWAT Workflow v1.5.2                                        
                                                                                    
Annual Summary for Watershed in year    9 of simulation

UNIT                                    PERCO    TILE                           WATER     SED     NO3     NO3     NO3     NO3        N       P       P
TIME     PREC    SURQ    LATQ     GWQ    LATE       Q     SW       ET     PET   YIELD   YIELD    SURQ    LATQ    PERC    CROP  ORGANIC SOLUBLE ORGANIC TILENO3
         (mm)    (mm)    (mm)    (mm)    (mm)    (mm)    (mm)    (mm)    (mm)    (mm)   (t/ha)  ------------------(kg nutrient/ha)-------------------- (kg/ha)
    1   26.90    5.80    9.57    0.01    0.02    0.00   83.84    2.29    2.33   15.36    0.52    0.00    0.01    0.00    0.00     0.75    0.00    0.09    0.00
    2    1.00    0.00    3.29    0.01    0.00    0.00   81.75    3.10    3.90    3.33    0.00    0.00    0.00    0.00    0.00     0.00    0.00    0.00    0.00
    3   15.50    1.54    6.86    0.01    0.01    0.00   83.01    3.95    4.71    8.41    0.08    0.00    0.01    0.00    0.00     0.11    0.00    0.01    0.00
    4    6.40    0.20    4.08    0.01    0.00    0.00   81.98    4.59    5.73    4.31    0.00    0.00    0.00    0.00    0.00     0.00    0.00    0.00    0.00
    5   25.70    5.63   10.59    0.01    0.03    0.00   83.41    4.61    5.74   16.21    0.37    0.00    0.01    0.00    0.00     0.56    0.00    0.07    0.00
    6    1.30    0.00    3.72    0.01    0.00    0.00   80.89    3.70    5.77    3.75    0.00    0.00    0.00    0.00    0.00     0.00    0.00    0.00    0.00
    7    0.00    0.00    1.28    0.01    0.00    0.00   78.58    2.31    5.75    1.29    0.00    0.00    0.00    0.00    0.00     0.00    0.00    0.00    0.00
    8    0.00    0.00    0.44    0.01    0.00    0.00   76.80    1.78    5.97    0.45    0.00    0.00    0.00    0.00    0.00     0.00    0.00    0.00    0.00
    9   70.90   33.01   15.32    0.01    0.12    0.00   87.78    3.69    4.27   48.30    4.42    0.00    0.02    0.00    0.00     6.08    0.00    0.74    0.00
   10   49.80   22.02   19.87    0.01    0.48    0.00   89.21    3.61    4.13   41.86    0.00    0.00    0.03    0.01    0.00     3.99    0.00    0.49    0.00
   11   53.10   24.90   22.26    0.01    0.90    0.00   90.85    2.14    2.17   47.16    3.03    0.00    0.04    0.02    0.00     3.37    0.00    0.41    0.00
   12   38.90   14.73   21.39    0.01    0.95    0.00   91.29    1.85    1.88   36.15    0.00    0.00    0.04    0.02    0.00     1.50    0.00    0.18    0.00
   13   15.00    1.84   14.40    0.01    0.48    0.00   91.35    1.88    1.90   16.29    0.14    0.00    0.03    0.01    0.00     0.12    0.00    0.01    0.00
   14   23.40    5.34   15.04    0.01    0.70    0.00   91.26    2.08    2.10   20.39    0.49    0.00    0.03    0.01    0.00     0.57    0.00    0.07    0.00
   15   17.50    2.70   13.11    0.01    0.54    0.00   91.00    2.41    2.44   15.84    0.00    0.00    0.02    0.01    0.00     0.14    0.00    0.02    0.00
   16    8.40    0.47    7.99    0.01    0.19    0.00   90.71    2.72    2.75    8.49    0.01    0.00    0.01    0.00    0.00     0.00    0.00    0.00    0.00
   17   32.30   10.31   14.86    0.01    0.77    0.00   90.61    2.85    2.94   25.16    0.71    0.00    0.02    0.02    0.00     0.77    0.00    0.09    0.00
   18    2.50    0.06    5.54    0.02    0.01    0.00   89.92    2.46    2.53    5.65    0.00    0.00    0.01    0.00    0.00     0.00    0.00    0.00    0.00
   19   10.70    0.75    6.09    0.02    0.11    0.00   91.19    2.19    2.22    6.85    0.01    0.00    0.01    0.00    0.00     0.01    0.00    0.00    0.00
   20    8.60    0.49    5.80    0.02    0.23    0.00   89.52    3.90    4.57    6.32    0.00    0.00    0.01    0.00    0.00     0.00    0.00    0.00    0.00
   21    1.80    0.03    2.22    0.02    0.01    0.00   87.63    3.30    4.44    2.28    0.00    0.00    0.00    0.00    0.00     0.00    0.00    0.00    0.00
   22    8.10    0.44    2.90    0.02    0.01    0.00   88.29    3.74    4.36    3.35    0.00    0.00    0.00    0.00    0.00     0.00    0.00    0.00    0.00
   23    0.00    0.00    1.00    0.02    0.01    0.00   86.00    2.27    4.18    1.03    0.00    0.00    0.00    0.00    0.00     0.00    0.00    0.00    0.00
   24    0.00    0.00    0.34    0.02    0.01    0.00   84.04    1.96    4.75    0.37    0.00    0.00    0.00    0.00    0.00     0.00    0.00    0.00    0.00
   25    6.60    0.31    1.70    0.02    0.01    0.00   84.31    3.59    5.38    2.04    0.00    0.00    0.00    0.00    0.00     0.00    0.00    0.00    0.00
   26    0.00    0.00    0.59    0.02    0.01    0.00   82.21    2.10    4.99    0.62    0.00    0.00    0.00    0.00    0.00     0.00    0.00    0.00    0.00
   27    8.40    0.46    2.33    0.02    0.01    0.00   83.36    3.53    5.00    2.81    0.01    0.00    0.00    0.00    0.00     0.00    0.00    0.00    0.00
   28   28.20    7.17    9.77    0.02    0.03    0.00   86.86    3.84    4.49   16.94    0.92    0.00    0.01    0.00    0.00     0.81    0.00    0.10    0.00
   29   70.90   39.08   20.54    0.02    0.72    0.00   88.73    3.05    3.25   59.58    3.49    0.00    0.03    0.02    0.00     4.24    0.00    0.52    0.00
   30    6.60    0.32    9.20    0.02    0.02    0.00   90.17    1.56    1.58    9.63    0.00    0.00    0.01    0.00    0.00     0.00    0.00    0.00    0.00
   31   38.10   14.29   17.03    0.03    0.98    0.00   90.77    1.11    1.12   31.31    1.44    0.00    0.03    0.02    0.00     1.23    0.00    0.15    0.00
    1  576.60  191.88  269.13    0.47    7.38    0.00   90.77   88.16  117.36  461.51   15.64    0.01    0.38    0.14    0.00    24.25    0.02    2.96    0.00
   32    2.50    0.06    6.67    0.03    0.04    0.00   88.92    2.99    3.15    6.80    0.00    0.00    0.01    0.00    0.00     0.00    0.00    0.00    0.00
   33    5.80    0.26    4.03    0.03    0.01    0.00   90.97    0.83    0.84    4.32    0.00    0.00    0.00    0.00    0.00     0.00    0.00    0.00    0.00
   34    8.90    0.52    6.00    0.03    0.30    0.00   88.54    3.47    3.89    6.55    0.00    0.00    0.01    0.01    0.00     0.00    0.00    0.00    0.00
   35   24.10    5.56   11.63    0.03    0.53    0.00   88.67    3.29    3.61   17.21    0.63    0.00    0.02    0.01    0.00     0.48    0.00    0.06    0.00
   36   21.30    4.23   12.75    0.03    0.48    0.00   89.51    2.42    2.45   17.01    0.00    0.00    0.02    0.01    0.00     0.18    0.00    0.02    0.00
   37    3.30    0.10    5.06    0.03    0.01    0.00   89.91    1.77    1.79    5.21    0.00    0.00    0.01    0.00    0.00     0.00    0.00    0.00    0.00
   38    7.90    0.43    5.17    0.03    0.19    0.00   88.12    3.84    4.19    5.63    0.00    0.00    0.01    0.00    0.01     0.00    0.00    0.00    0.00
   39   70.60   39.18   19.20    0.03    1.08    0.00   89.44    2.47    2.47   58.33    7.12    0.00    0.02    0.03    0.20     5.15    0.00    0.63    0.00
   40    0.30    0.00    6.60    0.03    0.01    0.00   87.19    2.54    3.56    6.72    0.00    0.00    0.01    0.00    0.31     0.00    0.00    0.00    0.00
   41    0.00    0.00    2.27    0.03    0.01    0.00   85.68    1.51    2.40    2.31    0.00    0.00    0.00    0.00    0.19     0.00    0.00    0.00    0.00
   42    0.00    0.00    0.78    0.03    0.01    0.00   84.02    1.65    2.92    0.82    0.00    0.00    0.00    0.00    0.26     0.00    0.00    0.00    0.00
   43    0.00    0.00    0.27    0.03    0.01    0.00   81.75    2.27    5.21    0.30    0.00    0.00    0.00    0.00    0.25     0.00    0.00    0.00    0.00
   44    0.00    0.00    0.09    0.03    0.00    0.00   79.58    2.16    4.78    0.13    0.00    0.00    0.00    0.00    0.47     0.00    0.00    0.00    0.00
   45    0.00    0.00    0.03    0.03    0.00    0.00   77.55    2.03    4.35    0.07    0.00    0.00    0.00    0.00    0.46     0.00    0.00    0.00    0.00
   46    0.00    0.00    0.01    0.03    0.00    0.00   75.68    1.87    3.94    0.05    0.00    0.00    0.00    0.00    0.37     0.00    0.00    0.00    0.00
   47    0.00    0.00    0.00    0.03    0.00    0.00   73.22    2.46    4.89    0.04    0.00    0.00    0.00    0.00    0.44     0.00    0.00    0.00    0.00
   48    0.00    0.00    0.00    0.03    0.00    0.00   71.60    1.62    2.55    0.04    0.00    0.00    0.00    0.00    0.30     0.00    0.00    0.00    0.00
   49    0.00    0.00    0.00    0.03    0.00    0.00   69.38    2.22    3.55    0.04    0.00    0.00    0.00    0.00    0.42     0.00    0.00    0.00    0.00
   50    0.00    0.00    0.00    0.03    0.00    0.00   67.23    2.15    3.75    0.04    0.00    0.00    0.00    0.00    0.20     0.00    0.00    0.00    0.00
   51    0.00    0.00    0.00    0.03    0.00    0.00   65.15    2.07    3.90    0.04    0.00    0.00    0.00    0.00    0.27     0.00    0.00    0.00    0.00
   52    0.00    0.00    0.00    0.03    0.00    0.00   62.59    2.57    4.82    0.04    0.00    0.00    0.00    0.00    0.27     0.00    0.00    0.00    0.00
   53    0.00    0.00    0.00    0.03    0.00    0.00   60.23    2.35    4.38    0.04    0.00    0.00    0.00    0.00    0.27     0.00    0.00    0.00    0.00
   54    0.00    0.00    0.00    0.03    0.00    0.00   57.68    2.56    4.90    0.04    0.00    0.00    0.00    0.00    0.17     0.00    0.00    0.00    0.00
   55    0.00    0.00    0.00    0.03    0.00    0.00   55.29    2.38    4.11    0.04    0.00    0.00    0.00    0.00    0.03     0.00    0.00    0.00    0.00
   56    0.00    0.00    0.00    0.03    0.00    0.00   52.61    2.68    5.15    0.04    0.00    0.00    0.00    0.00    0.03     0.00    0.00    0.00    0.00
   57    0.00    0.00    0.00    0.03    0.00    0.00   49.85    2.76    5.19    0.04    0.00    0.00    0.00    0.00    0.03     0.00    0.00    0.00    0.00
   58    0.00    0.00    0.00    0.03    0.00    0.00   47.47    2.38    4.79    0.04    0.00    0.00    0.00    0.00    0.03     0.00    0.00    0.00    0.00
   59    0.00    0.00    0.00    0.03    0.00    0.00   45.02    2.44    5.26    0.04    0.00    0.00    0.00    0.00    0.03     0.00    0.00    0.00    0.00
    2  144.70   50.34   80.57    0.88    2.69    0.00   45.02   65.76  106.81  131.95    7.77    0.00    0.11    0.07    5.02     5.81    0.00    0.71    0.00
   60    0.00    0.00    0.00    0.03    0.00    0.00   42.58    2.44    4.20    0.04    0.00    0.00    0.00    0.00    0.03     0.00    0.00    0.00    0.00
   61    0.00    0.00    0.00    0.03    0.00    0.00   40.26    2.32    3.85    0.04    0.00    0.00    0.00    0.00    0.02     0.00    0.00    0.00    0.00
   62    0.00    0.00    0.00    0.03    0.00    0.00   37.70    2.56    4.36    0.03    0.00    0.00    0.00    0.00    0.02     0.00    0.00    0.00    0.00
   63    0.00    0.00    0.00    0.03    0.00    0.00   35.47    2.23    3.41    0.03    0.00    0.00    0.00    0.00    0.02     0.00    0.00    0.00    0.00
   64    0.00    0.00    0.00    0.03    0.00    0.00   33.44    2.03    5.15    0.03    0.00    0.00    0.00    0.00    0.02     0.00    0.00    0.00    0.00
   65    0.00    0.00    0.00    0.03    0.00    0.00   32.21    1.23    3.46    0.03    0.00    0.00    0.00    0.00    0.02     0.00    0.00    0.00    0.00
   66    0.00    0.00    0.00    0.03    0.00    0.00   31.18    1.03    1.86    0.03    0.00    0.00    0.00    0.00    0.02     0.00    0.00    0.00    0.00
   67    0.00    0.00    0.00    0.03    0.00    0.00   30.42    0.76    1.12    0.03    0.00    0.00    0.00    0.00    0.02     0.00    0.00    0.00    0.00
   68    0.00    0.00    0.00    0.03    0.00    0.00   28.60    1.82    3.03    0.03    0.00    0.00    0.00    0.00    0.02     0.00    0.00    0.00    0.00
   69    0.00    0.00    0.00    0.03    0.00    0.00   26.42    2.17    4.38    0.03    0.00    0.00    0.00    0.00    0.02     0.00    0.00    0.00    0.00
   70    5.60    0.00    1.29    0.03    0.00    0.00   27.01    3.05    4.12    1.32    0.00    0.00    0.00    0.00    0.02     0.00    0.00    0.00    0.00
   71    0.00    0.00    0.44    0.03    0.00    0.00   24.42    2.59    4.32    0.47    0.00    0.00    0.00    0.00    0.03     0.00    0.00    0.00    0.00
   72    1.80    0.00    0.32    0.03    0.00    0.00   22.79    3.17    3.99    0.35    0.00    0.00    0.00    0.00    0.03     0.00    0.00    0.00    0.00
   73    0.00    0.00    0.11    0.03    0.00    0.00   20.61    2.18    3.77    0.14    0.00    0.00    0.00    0.00    0.03     0.00    0.00    0.00    0.00
   74    2.80    0.00    0.52    0.02    0.00    0.00   19.40    3.28    4.46    0.55    0.00    0.00    0.00    0.00    0.03     0.00    0.00    0.00    0.00
   75   14.20    0.06    4.07    0.01    0.00    0.00   23.68    3.93    4.55    4.15    0.02    0.00    0.00    0.00    0.03     0.00    0.00    0.00    0.00
   76    0.50    0.00    1.40    0.01    0.00    0.00   20.81    3.37    4.95    1.41    0.00    0.00    0.00    0.00    0.03     0.00    0.00    0.00    0.00
   77    0.00    0.00    0.48    0.01    0.00    0.00   18.28    2.53    3.50    0.49    0.00    0.00    0.00    0.00    0.03     0.00    0.00    0.00    0.00
   78    5.60    0.03    1.46    0.01    0.00    0.00   18.02    3.86    5.04    1.50    0.00    0.00    0.00    0.00    0.03     0.00    0.00    0.00    0.00
   79    6.40    0.06    2.07    0.01    0.00    0.00   18.85    3.12    3.72    2.14    0.00    0.00    0.00    0.00    0.03     0.00    0.00    0.00    0.00
   80   17.80    0.84    5.69    0.01    0.00    0.00   25.18    3.04    3.33    6.54    0.04    0.00    0.00    0.00    0.03     0.00    0.00    0.00    0.00
   81    2.00    0.01    2.26    0.01    0.00    0.00   22.99    3.71    4.37    2.29    0.00    0.00    0.00    0.00    0.03     0.00    0.00    0.00    0.00
   82   17.30    0.92    6.01    0.01    0.00    0.00   28.72    2.67    2.83    6.93    0.02    0.00    0.00    0.00    0.02     0.00    0.00    0.00    0.00
   83    0.00    0.00    2.07    0.01    0.00    0.00   26.58    2.14    2.72    2.09    0.00    0.00    0.00    0.00    0.03     0.00    0.00    0.00    0.00
   84    3.30    0.03    1.40    0.01    0.00    0.00   25.77    3.03    3.39    1.44    0.00    0.00    0.00    0.00    0.03     0.00    0.00    0.00    0.00
   85   11.70    0.51    4.15    0.01    0.00    0.00   26.93    4.44    4.72    4.66    0.01    0.00    0.00    0.00    0.02     0.00    0.00    0.00    0.00
   86    3.00    0.03    1.96    0.01    0.00    0.00   26.63    2.46    2.77    2.00    0.00    0.00    0.00    0.00    0.02     0.00    0.00    0.00    0.00
   87    1.00    0.00    0.72    0.01    0.00    0.00   24.61    2.95    3.44    0.73    0.00    0.00    0.00    0.00    0.02     0.00    0.00    0.00    0.00
   88    0.80    0.00    0.25    0.01    0.00    0.00   22.88    2.53    3.19    0.26    0.00    0.00    0.00    0.00    0.02     0.00    0.00    0.00    0.00
   89    0.00    0.00    0.08    0.01    0.00    0.00   20.73    2.15    2.99    0.09    0.00    0.00    0.00    0.00    0.02     0.00    0.00    0.00    0.00
   90    0.00    0.00    0.03    0.00    0.00    0.00   18.22    2.51    4.38    0.04    0.00    0.00    0.00    0.00    0.02     0.00    0.00    0.00    0.00
    3   93.80    2.49   36.76    0.54    0.02    0.00   18.22   81.32  115.39   39.93    0.09    0.00    0.00    0.00    0.77     0.00    0.00    0.00    0.00
   91    0.30    0.00    0.01    0.00    0.00    0.00   15.83    2.69    4.74    0.02    0.00    0.00    0.00    0.00    0.02     0.00    0.00    0.00    0.00
   92    0.30    0.00    0.00    0.00    0.00    0.00   14.79    1.34    3.41    0.01    0.00    0.00    0.00    0.00    0.02     0.00    0.00    0.00    0.00
   93    0.30    0.00    0.00    0.00    0.00    0.00   13.78    1.31    4.71    0.01    0.00    0.00    0.00    0.00    0.02     0.00    0.00    0.00    0.00
   94    2.50    0.00    0.41    0.00    0.00    0.00   13.53    2.13    4.20    0.41    0.00    0.00    0.00    0.00    0.02     0.00    0.00    0.00    0.00
   95    2.30    0.00    0.48    0.00    0.00    0.00   12.98    2.33    4.56    0.49    0.00    0.00    0.00    0.00    0.02     0.00    0.00    0.00    0.00
   96    4.30    0.00    1.08    0.00    0.00    0.00   12.77    3.11    5.22    1.09    0.00    0.00    0.00    0.00    0.02     0.00    0.00    0.00    0.00
   97    0.00    0.00    0.37    0.00    0.00    0.00   11.58    1.19    5.58    0.38    0.00    0.00    0.00    0.00    0.02     0.00    0.00    0.00    0.00
   98    0.00    0.00    0.13    0.00    0.00    0.00   10.92    0.66    4.32    0.13    0.00    0.00    0.00    0.00    0.02     0.00    0.00    0.00    0.00
   99    1.80    0.00    0.19    0.00    0.00    0.00   10.95    1.54    4.03    0.20    0.00    0.00    0.00    0.00    0.02     0.00    0.00    0.00    0.00
  100    0.00    0.00    0.07    0.00    0.00    0.00   10.29    0.66    4.44    0.07    0.00    0.00    0.00    0.00    0.02     0.00    0.00    0.00    0.00
  101   11.90    0.03    3.23    0.00    0.00    0.00   13.54    3.74    4.99    3.27    0.01    0.00    0.00    0.00    0.02     0.00    0.00    0.00    0.00
  102    1.80    0.00    1.30    0.00    0.00    0.00   12.27    2.77    3.71    1.31    0.00    0.00    0.00    0.00    0.02     0.00    0.00    0.00    0.00
  103    1.30    0.00    0.54    0.00    0.00    0.00   11.63    1.80    3.23    0.55    0.00    0.00    0.00    0.00    0.00     0.00    0.00    0.00    0.00
  104    2.80    0.00    0.78    0.00    0.00    0.00   11.84    1.69    2.73    0.78    0.00    0.00    0.00    0.00    0.00     0.00    0.00    0.00    0.00
  105    2.30    0.00    0.73    0.00    0.00    0.00   11.44    1.99    3.39    0.74    0.00    0.00    0.00    0.00    0.00     0.00    0.00    0.00    0.00
  106    0.00    0.00    0.25    0.00    0.00    0.00   11.04    0.41    1.46    0.26    0.00    0.00    0.00    0.00    0.00     0.00    0.00    0.00    0.00
  107    0.00    0.00    0.09    0.00    0.00    0.00   10.47    0.57    2.90    0.09    0.00    0.00    0.00    0.00    0.00     0.00    0.00    0.00    0.00
  108    0.00    0.00    0.03    0.00    0.00    0.00   10.22    0.24    1.18    0.03    0.00    0.00    0.00    0.00    0.00     0.00    0.00    0.00    0.00
  109    0.00    0.00    0.01    0.00    0.00    0.00    9.88    0.34    2.08    0.01    0.00    0.00    0.00    0.00    0.00     0.00    0.00    0.00    0.00
  110    0.30    0.00    0.00    0.00    0.00    0.00    9.78    0.40    2.25    0.01    0.00    0.00    0.00    0.00    0.00     0.00    0.00    0.00    0.00
  111    1.00    0.00    0.00    0.00    0.00    0.00    9.36    1.42    4.16    0.01    0.00    0.00    0.00    0.00    0.00     0.00    0.00    0.00    0.00
  112    1.30    0.00    0.05    0.00    0.00    0.00    9.37    1.22    3.44    0.05    0.00    0.00    0.00    0.00    0.00     0.00    0.00    0.00    0.00
  113   98.00   16.58   32.22    0.00    0.03    0.00   38.15    3.23    3.28   48.77    0.28    0.00    0.01    0.00    0.00     0.02    0.00    0.00    0.00
  114    0.80    0.00   11.07    0.00    0.02    0.00   37.26    1.68    1.88   11.10    0.00    0.00    0.00    0.00    0.00     0.00    0.00    0.00    0.00
  115    0.00    0.00    3.80    0.00    0.02    0.00   33.58    3.66    5.04    3.81    0.00    0.00    0.00    0.00    0.00     0.00    0.00    0.00    0.00
  116    0.50    0.00    1.31    0.00    0.02    0.00   30.99    3.07    4.80    1.31    0.00    0.00    0.00    0.00    0.00     0.00    0.00    0.00    0.00
  117    7.10    0.35    2.23    0.00    0.02    0.00   31.13    3.87    5.04    2.58    0.00    0.00    0.00    0.00    0.00     0.00    0.00    0.00    0.00
  118   24.90    1.86    9.36    0.00    0.03    0.00   38.01    3.04    4.24   11.20    0.06    0.00    0.00    0.00    0.00     0.00    0.00    0.00    0.00
  119    3.80    0.13    4.04    0.00    0.02    0.00   37.31    3.10    4.00    4.20    0.00    0.00    0.00    0.00    0.00     0.00    0.00    0.00    0.00
  120   69.30   19.26   26.27    0.00    0.04    0.00   46.50    2.91    3.39   45.44    0.33    0.00    0.01    0.00    0.00     0.03    0.00    0.00    0.00
    4  238.90   38.21  100.06    0.05    0.18    0.00   46.50   58.11  112.38  138.33    0.68    0.00    0.02    0.00    0.27     0.06    0.00    0.01    0.00
  121    4.60    0.18   10.17    0.00    0.02    0.00   46.57    2.60    2.88   10.43    0.00    0.00    0.00    0.00    0.00     0.00    0.00    0.00    0.00
  122    4.60    0.18    4.70    0.00    0.02    0.00   46.40    2.74    3.11    4.89    0.00    0.00    0.00    0.00    0.00     0.00    0.00    0.00    0.00
  123    4.60    0.18    2.80    0.00    0.01    0.00   46.08    2.93    3.42    2.98    0.00    0.00    0.00    0.00    0.00     0.00    0.00    0.00    0.00
  124    0.00    0.00    0.96    0.00    0.01    0.00   43.91    2.16    3.91    0.97    0.00    0.00    0.00    0.00    0.00     0.00    0.00    0.00    0.00
  125    0.00    0.00    0.33    0.00    0.01    0.00   41.79    2.10    5.00    0.33    0.00    0.00    0.00    0.00    0.00     0.00    0.00    0.00    0.00
  126    1.00    0.00    0.11    0.00    0.01    0.00   39.84    2.93    6.20    0.12    0.00    0.00    0.00    0.00    0.00     0.00    0.00    0.00    0.00
  127    2.00    0.03    0.31    0.00    0.01    0.00   38.68    2.71    5.44    0.34    0.00    0.00    0.00    0.00    0.00     0.00    0.00    0.00    0.00
  128    1.00    0.00    0.11    0.00    0.01    0.00   37.52    2.15    4.08    0.11    0.00    0.00    0.00    0.00    0.00     0.00    0.00    0.00    0.00
  129    0.00    0.00    0.04    0.00    0.01    0.00   36.00    1.51    4.94    0.04    0.00    0.00    0.00    0.00    0.00     0.00    0.00    0.00    0.00
  130    9.70    0.54    2.54    0.00    0.01    0.00   38.32    2.99    5.23    3.07    0.00    0.00    0.00    0.00    0.00     0.00    0.00    0.00    0.00
  131   33.50    3.96   13.84    0.00    0.02    0.00   46.14    1.93    2.08   17.78    0.07    0.00    0.01    0.00    0.00     0.00    0.00    0.00    0.00
  132    7.90    0.41    7.94    0.00    0.01    0.00   46.20    2.57    2.81    8.39    0.00    0.00    0.01    0.00    0.00     0.00    0.00    0.00    0.00
  133    1.80    0.03    2.96    0.00    0.01    0.00   44.88    2.73    3.35    3.00    0.00    0.00    0.00    0.00    0.00     0.00    0.00    0.00    0.00
  134    5.60    0.24    2.41    0.00    0.01    0.00   44.78    3.33    4.08    2.65    0.00    0.00    0.00    0.00    0.00     0.00    0.00    0.00    0.00
  135    0.50    0.00    0.83    0.00    0.01    0.00   42.70    2.57    4.28    0.84    0.00    0.00    0.00    0.00    0.00     0.00    0.00    0.00    0.00
  136    1.80    0.03    0.48    0.00    0.01    0.00   41.31    2.86    4.55    0.51    0.00    0.00    0.00    0.00    0.00     0.00    0.00    0.00    0.00
  137    0.00    0.00    0.17    0.00    0.01    0.00   39.57    1.73    4.55    0.17    0.00    0.00    0.00    0.00    0.00     0.00    0.00    0.00    0.00
  138    6.90    0.31    1.75    0.00    0.01    0.00   40.45    3.14    5.00    2.05    0.00    0.00    0.00    0.00    0.00     0.00    0.00    0.00    0.00
  139   11.90    0.68    4.23    0.00    0.01    0.00   42.91    3.21    3.93    4.91    0.01    0.00    0.00    0.00    0.00     0.00    0.00    0.00    0.00
  140    0.50    0.00    1.45    0.00    0.00    0.00   40.76    2.65    4.55    1.47    0.00    0.00    0.00    0.00    0.00     0.00    0.00    0.00    0.00
  141    0.00    0.00    0.50    0.00    0.00    0.00   38.70    2.06    5.23    0.51    0.00    0.00    0.00    0.00    0.00     0.00    0.00    0.00    0.00
  142    0.00    0.00    0.17    0.00    0.00    0.00   37.18    1.51    4.56    0.18    0.00    0.00    0.00    0.00    0.00     0.00    0.00    0.00    0.00
  143    5.60    0.14    1.35    0.00    0.00    0.00   38.09    2.58    4.28    1.49    0.00    0.00    0.00    0.00    0.00     0.00    0.00    0.00    0.00
  144    4.60    0.09    1.53    0.00    0.00    0.00   38.19    2.79    4.57    1.62    0.00    0.00    0.00    0.00    0.00     0.00    0.00    0.00    0.00
  145    0.00    0.00    0.52    0.00    0.00    0.00   36.17    2.02    5.39    0.53    0.00    0.00    0.00    0.00    0.00     0.00    0.00    0.00    0.00
  146    6.10    0.04    1.63    0.00    0.00    0.00   37.13    2.89    4.89    1.68    0.00    0.00    0.00    0.00    0.00     0.00    0.00    0.00    0.00
  147    1.30    0.00    0.64    0.00    0.00    0.00   35.94    2.37    4.25    0.64    0.00    0.00    0.00    0.00    0.00     0.00    0.00    0.00    0.00
  148    4.10    0.00    1.13    0.00    0.00    0.00   36.13    2.52    4.57    1.14    0.00    0.00    0.00    0.00    0.00     0.00    0.00    0.00    0.00
  149    0.80    0.00    0.39    0.00    0.00    0.00   34.66    2.27    5.16    0.39    0.00    0.00    0.00    0.00    0.00     0.00    0.00    0.00    0.00
  150   13.50    0.09    3.93    0.00    0.00    0.00   39.11    3.18    4.15    4.02    0.02    0.00    0.00    0.00    0.00     0.00    0.00    0.00    0.00
  151    0.80    0.00    1.35    0.00    0.00    0.00   37.73    2.18    3.19    1.35    0.00    0.00    0.00    0.00    0.00     0.00    0.00    0.00    0.00
    5  134.70    7.13   71.24    0.04    0.23    0.00   37.73   77.91  133.61   78.60    0.10    0.00    0.04    0.00    0.06     0.00    0.00    0.00    0.00
  152    1.80    0.00    0.68    0.00    0.00    0.00   36.81    2.40    3.46    0.68    0.00    0.00    0.00    0.00    0.00     0.00    0.00    0.00    0.00
  153    1.80    0.00    0.46    0.00    0.00    0.00   35.99    2.27    3.39    0.46    0.00    0.00    0.00    0.00    0.00     0.00    0.00    0.00    0.00
  154    0.00    0.00    0.16    0.00    0.00    0.00   34.39    1.60    4.38    0.16    0.00    0.00    0.00    0.00    0.00     0.00    0.00    0.00    0.00
  155    9.40    0.02    2.49    0.00    0.00    0.00   37.21    2.85    4.00    2.51    0.00    0.00    0.00    0.00    0.00     0.00    0.00    0.00    0.00
  156  174.20  100.01   39.06    0.00    0.04    0.00   50.58    2.58    2.78  138.83    0.96    0.00    0.07    0.00    0.00     0.25    0.01    0.03    0.00
  157    0.30    0.00   13.42    0.00    0.00    0.00   49.37    1.50    2.45   13.64    0.00    0.00    0.02    0.00    0.00     0.00    0.00    0.00    0.00
  158    1.80    0.01    4.84    0.00    0.00    0.00   49.17    1.64    1.81    4.88    0.00    0.00    0.01    0.00    0.00     0.00    0.00    0.00    0.00
  159    0.30    0.00    1.66    0.00    0.00    0.00   47.75    1.72    2.80    1.67    0.00    0.00    0.00    0.00    0.00     0.00    0.00    0.00    0.00
  160   11.70    0.52    4.45    0.00    0.01    0.00   50.43    2.59    2.79    4.97    0.01    0.00    0.00    0.00    0.00     0.00    0.00    0.00    0.00
  161    5.30    0.15    3.12    0.00    0.00    0.00   50.59    2.56    2.75    3.28    0.00    0.00    0.00    0.00    0.00     0.00    0.00    0.00    0.00
  162    0.30    0.00    1.07    0.00    0.00    0.00   49.47    1.41    2.27    1.08    0.00    0.00    0.00    0.00    0.00     0.00    0.00    0.00    0.00
  163    0.80    0.00    0.37    0.00    0.00    0.00   48.19    2.08    2.73    0.37    0.00    0.00    0.00    0.00    0.00     0.00    0.00    0.00    0.00
  164   10.70    0.43    3.62    0.00    0.01    0.00   50.61    2.52    2.66    4.05    0.00    0.00    0.00    0.00    0.00     0.00    0.00    0.00    0.00
  165    0.80    0.00    1.25    0.00    0.00    0.00   48.84    2.57    3.64    1.26    0.00    0.00    0.00    0.00    0.00     0.00    0.00    0.00    0.00
  166    1.80    0.00    0.64    0.00    0.00    0.00   47.94    2.38    3.20    0.65    0.00    0.00    0.00    0.00    0.00     0.00    0.00    0.00    0.00
  167   30.50    3.91   12.78    0.00    0.02    0.00   52.87    2.51    2.69   16.66    0.10    0.00    0.02    0.00    0.00     0.01    0.00    0.00    0.00
  168    0.80    0.00    4.39    0.00    0.00    0.00   51.10    2.56    3.56    4.42    0.00    0.00    0.01    0.00    0.00     0.00    0.00    0.00    0.00
  169    1.50    0.00    1.63    0.00    0.00    0.00   50.32    2.09    2.57    1.64    0.00    0.00    0.00    0.00    0.00     0.00    0.00    0.00    0.00
  170    0.50    0.00    0.56    0.00    0.00    0.00   49.52    1.30    2.34    0.57    0.00    0.00    0.00    0.00    0.00     0.00    0.00    0.00    0.00
  171    0.30    0.00    0.19    0.00    0.00    0.00   48.52    1.30    2.57    0.20    0.00    0.00    0.00    0.00    0.00     0.00    0.00    0.00    0.00
  172    0.00    0.00    0.07    0.00    0.00    0.00   47.08    1.44    3.73    0.07    0.00    0.00    0.00    0.00    0.00     0.00    0.00    0.00    0.00
  173    4.10    0.00    0.88    0.00    0.00    0.00   47.33    2.55    4.48    0.88    0.00    0.00    0.00    0.00    0.00     0.00    0.00    0.00    0.00
  174    6.10    0.02    1.82    0.00    0.00    0.00   48.45    2.66    3.95    1.84    0.00    0.00    0.00    0.00    0.00     0.00    0.00    0.00    0.00
  175    8.90    0.19    3.06    0.00    0.00    0.00   50.90    2.54    2.79    3.25    0.00    0.00    0.00    0.00    0.00     0.00    0.00    0.00    0.00
  176   17.30    1.00    8.44    0.00    0.01    0.00   53.97    1.96    2.08    9.43    0.03    0.00    0.01    0.00    0.00     0.00    0.00    0.00    0.00
  177    0.00    0.00    2.90    0.00    0.00    0.00   52.46    1.50    2.57    2.92    0.00    0.00    0.00    0.00    0.00     0.00    0.00    0.00    0.00
  178    0.00    0.00    1.00    0.00    0.00    0.00   51.72    0.74    1.46    1.00    0.00    0.00    0.00    0.00    0.00     0.00    0.00    0.00    0.00
  179    3.00    0.02    0.87    0.00    0.00    0.00   51.24    2.65    3.51    0.90    0.00    0.00    0.00    0.00    0.00     0.00    0.00    0.00    0.00
  180    0.30    0.00    0.30    0.00    0.00    0.00   49.98    1.55    2.96    0.30    0.00    0.00    0.00    0.00    0.00     0.00    0.00    0.00    0.00
  181    4.80    0.04    1.22    0.00    0.00    0.00   51.09    1.95    2.17    1.26    0.00    0.00    0.00    0.00    0.00     0.00    0.00    0.00    0.00
    6  299.10  106.31  117.39    0.05    0.13    0.00   51.09   61.98   88.53  223.83    1.11    0.00    0.16    0.00    0.00     0.26    0.01    0.03    0.00
  182    2.30    0.00    0.80    0.00    0.00    0.00   50.09    2.72    3.82    0.81    0.00    0.00    0.00    0.00    0.00     0.00    0.00    0.00    0.00
  183   14.00    0.56    5.27    0.00    0.01    0.00   52.95    2.96    3.44    5.82    0.01    0.00    0.01    0.00    0.00     0.00    0.00    0.00    0.00
  184    6.90    0.22    4.10    0.00    0.01    0.00   52.33    3.81    4.89    4.32    0.00    0.00    0.01    0.00    0.00     0.00    0.00    0.00    0.00
  185    0.00    0.00    1.41    0.00    0.00    0.00   50.22    2.11    4.31    1.42    0.00    0.00    0.00    0.00    0.00     0.00    0.00    0.00    0.00
  186    7.60    0.13    2.38    0.00    0.00    0.00   51.81    2.99    3.70    2.52    0.00    0.00    0.00    0.00    0.00     0.00    0.00    0.00    0.00
  187    1.50    0.00    0.96    0.00    0.00    0.00   50.33    2.77    3.88    0.96    0.00    0.00    0.00    0.00    0.00     0.00    0.00    0.00    0.00
  188    5.10    0.04    1.54    0.00    0.00    0.00   52.45    1.09    1.16    1.59    0.00    0.00    0.00    0.00    0.00     0.00    0.00    0.00    0.00
  189    0.30    0.00    0.53    0.00    0.00    0.00   51.36    1.39    1.85    0.53    0.00    0.00    0.00    0.00    0.00     0.00    0.00    0.00    0.00
  190    0.00    0.00    0.18    0.00    0.00    0.00   50.14    1.22    2.26    0.19    0.00    0.00    0.00    0.00    0.00     0.00    0.00    0.00    0.00
  191    2.80    0.00    0.59    0.00    0.00    0.00   50.09    2.04    2.40    0.60    0.00    0.00    0.00    0.00    0.00     0.00    0.00    0.00    0.00
  192    0.30    0.00    0.20    0.00    0.00    0.00   49.28    1.11    2.26    0.21    0.00    0.00    0.00    0.00    0.00     0.00    0.00    0.00    0.00
  193   14.70    0.44    5.16    0.00    0.01    0.00   53.73    2.05    2.14    5.60    0.01    0.00    0.01    0.00    0.00     0.00    0.00    0.00    0.00
  194   24.40    2.67   12.89    0.00    0.02    0.00   56.94    1.56    1.63   15.54    0.04    0.00    0.03    0.00    0.00     0.00    0.00    0.00    0.00
  195    2.00    0.02    4.80    0.00    0.00    0.00   56.47    1.89    1.98    4.84    0.00    0.00    0.01    0.00    0.00     0.00    0.00    0.00    0.00
  196    9.40    0.45    5.60    0.00    0.01    0.00   56.83    2.56    2.72    6.05    0.00    0.00    0.01    0.00    0.00     0.00    0.00    0.00    0.00
  197    5.10    0.17    3.43    0.00    0.01    0.00   56.49    2.97    3.42    3.60    0.00    0.00    0.01    0.00    0.00     0.00    0.00    0.00    0.00
  198   31.80    5.61   14.57    0.00    0.02    0.00   58.81    3.45    4.22   20.14    0.13    0.00    0.03    0.00    0.00     0.03    0.00    0.00    0.00
  199   10.40    0.54    8.93    0.00    0.01    0.00   59.67    3.01    3.47    9.50    0.00    0.00    0.01    0.00    0.00     0.00    0.00    0.00    0.00
  200   33.50    6.79   16.75    0.00    0.03    0.00   62.23    3.28    3.91   23.51    0.08    0.00    0.02    0.00    0.00     0.02    0.00    0.00    0.00
  201   27.40    4.48   17.18    0.00    0.02    0.00   65.23    2.50    2.61   21.67    0.00    0.00    0.02    0.00    0.00     0.01    0.00    0.00    0.00
  202    0.00    0.00    5.90    0.00    0.00    0.00   64.31    0.91    1.58    5.94    0.00    0.00    0.01    0.00    0.00     0.00    0.00    0.00    0.00
  203    0.00    0.00    2.03    0.00    0.00    0.00   63.08    1.23    2.30    2.04    0.00    0.00    0.00    0.00    0.00     0.00    0.00    0.00    0.00
  204    0.00    0.00    0.70    0.00    0.00    0.00   61.63    1.45    3.31    0.70    0.00    0.00    0.00    0.00    0.00     0.00    0.00    0.00    0.00
  205   13.70    0.77    4.86    0.00    0.01    0.00   63.64    3.87    4.87    5.62    0.03    0.00    0.00    0.00    0.00     0.00    0.00    0.00    0.00
  206    0.00    0.00    1.67    0.00    0.00    0.00   60.90    2.74    5.71    1.69    0.00    0.00    0.00    0.00    0.00     0.00    0.00    0.00    0.00
  207    0.00    0.00    0.57    0.00    0.00    0.00   59.17    1.72    4.86    0.58    0.00    0.00    0.00    0.00    0.00     0.00    0.00    0.00    0.00
  208   23.40    2.32    8.32    0.00    0.01    0.00   64.13    3.75    4.67   10.62    0.03    0.00    0.01    0.00    0.00     0.00    0.00    0.00    0.00
  209    4.10    0.08    3.77    0.00    0.00    0.00   63.49    3.26    4.17    3.87    0.00    0.00    0.00    0.00    0.00     0.00    0.00    0.00    0.00
  210    4.80    0.10    2.42    0.00    0.00    0.00   63.27    3.20    4.01    2.53    0.00    0.00    0.00    0.00    0.00     0.00    0.00    0.00    0.00
  211    0.50    0.00    0.83    0.00    0.00    0.00   61.44    2.34    3.87    0.84    0.00    0.00    0.00    0.00    0.00     0.00    0.00    0.00    0.00
  212    2.80    0.01    0.78    0.00    0.00    0.00   60.95    2.52    3.58    0.79    0.00    0.00    0.00    0.00    0.00     0.00    0.00    0.00    0.00
    7  248.80   25.39  139.12    0.07    0.20    0.00   60.95   74.46  103.02  164.64    0.33    0.00    0.18    0.00    0.02     0.06    0.00    0.01    0.00
  213    9.70    0.24    3.02    0.00    0.01    0.00   63.60    2.61    2.80    3.26    0.01    0.00    0.00    0.00    0.00     0.00    0.00    0.00    0.00
  214    0.30    0.00    1.04    0.00    0.00    0.00   62.24    1.66    2.72    1.05    0.00    0.00    0.00    0.00    0.00     0.00    0.00    0.00    0.00
  215   21.10    2.10    8.80    0.00    0.02    0.00   66.43    1.93    2.01   10.88    0.06    0.00    0.01    0.00    0.00     0.01    0.00    0.00    0.00
  216   14.00    0.87    9.36    0.00    0.02    0.00   66.63    3.25    3.81   10.24    0.00    0.00    0.01    0.00    0.00     0.00    0.00    0.00    0.00
  217   16.50    1.33   10.22    0.00    0.02    0.00   67.96    3.16    3.65   11.55    0.03    0.00    0.01    0.00    0.00     0.00    0.00    0.00    0.00
  218    4.80    0.14    4.69    0.00    0.00    0.00   67.52    3.31    3.91    4.84    0.00    0.00    0.00    0.00    0.00     0.00    0.00    0.00    0.00
  219    0.00    0.00    1.61    0.00    0.00    0.00   64.69    2.83    5.47    1.62    0.00    0.00    0.00    0.00    0.00     0.00    0.00    0.00    0.00
  220    0.50    0.00    0.55    0.00    0.00    0.00   62.46    2.73    6.27    0.56    0.00    0.00    0.00    0.00    0.00     0.00    0.00    0.00    0.00
  221    7.10    0.10    1.96    0.00    0.00    0.00   63.43    3.34    5.25    2.06    0.00    0.00    0.00    0.00    0.00     0.00    0.00    0.00    0.00
  222   74.70   34.15   20.50    0.00    0.07    0.00   71.06    2.65    2.79   54.56    0.59    0.00    0.02    0.00    0.00     0.38    0.00    0.05    0.00
  223    0.00    0.00    7.04    0.00    0.00    0.00   68.91    2.15    3.76    7.13    0.00    0.00    0.01    0.00    0.00     0.00    0.00    0.00    0.00
  224    0.30    0.00    2.42    0.00    0.00    0.00   67.70    1.51    2.91    2.43    0.00    0.00    0.00    0.00    0.00     0.00    0.00    0.00    0.00
  225    0.00    0.00    0.83    0.00    0.00    0.00   66.22    1.48    3.71    0.84    0.00    0.00    0.00    0.00    0.00     0.00    0.00    0.00    0.00
  226    0.00    0.00    0.29    0.00    0.00    0.00   64.65    1.57    4.66    0.29    0.00    0.00    0.00    0.00    0.00     0.00    0.00    0.00    0.00
  227   30.00    5.21   10.03    0.00    0.04    0.00   70.15    4.12    5.21   15.22    0.03    0.00    0.01    0.00    0.00     0.01    0.00    0.00    0.00
  228  103.10   60.71   25.77    0.00    0.25    0.00   75.12    3.16    3.60   86.36    1.40    0.00    0.03    0.00    0.00     1.05    0.00    0.13    0.00
  229   88.60   50.32   29.25    0.00    0.25    0.00   80.47    1.62    1.67   79.58    0.00    0.00    0.03    0.00    0.00     0.28    0.00    0.03    0.00
  230    8.10    0.39   13.55    0.00    0.05    0.00   81.06    1.74    1.79   14.06    0.00    0.00    0.01    0.00    0.00     0.00    0.00    0.00    0.00
  231   37.60   12.48   18.10    0.00    0.19    0.00   83.82    1.70    1.76   30.55    0.14    0.00    0.01    0.00    0.00     0.08    0.00    0.01    0.00
  232    0.50    0.00    6.22    0.00    0.00    0.00   83.18    1.13    1.42    6.27    0.00    0.00    0.01    0.00    0.00     0.00    0.00    0.00    0.00
  233   13.00    1.07    7.79    0.00    0.07    0.00   83.86    2.56    2.64    8.86    0.02    0.00    0.01    0.00    0.00     0.00    0.00    0.00    0.00
  234    0.00    0.00    2.68    0.00    0.00    0.00   80.73    3.13    5.41    2.70    0.00    0.00    0.00    0.00    0.00     0.00    0.00    0.00    0.00
  235    0.00    0.00    0.92    0.00    0.00    0.00   78.89    1.83    4.36    0.93    0.00    0.00    0.00    0.00    0.00     0.00    0.00    0.00    0.00
  236    1.30    0.00    0.32    0.00    0.00    0.00   77.92    2.27    3.47    0.33    0.00    0.00    0.00    0.00    0.00     0.00    0.00    0.00    0.00
  237    0.80    0.00    0.11    0.00    0.00    0.00   76.69    2.02    3.63    0.12    0.00    0.00    0.00    0.00    0.00     0.00    0.00    0.00    0.00
  238   30.20    7.37    9.08    0.00    0.04    0.00   82.68    3.04    3.33   16.42    0.08    0.00    0.00    0.00    0.00     0.05    0.00    0.01    0.00
  239    0.50    0.00    3.12    0.00    0.00    0.00   80.61    2.56    3.82    3.16    0.00    0.00    0.00    0.00    0.00     0.00    0.00    0.00    0.00
  240    0.00    0.00    1.07    0.00    0.00    0.00   78.73    1.87    4.00    1.08    0.00    0.00    0.00    0.00    0.00     0.00    0.00    0.00    0.00
  241    0.00    0.00    0.37    0.00    0.00    0.00   77.25    1.48    3.93    0.37    0.00    0.00    0.00    0.00    0.00     0.00    0.00    0.00    0.00
  242    0.00    0.00    0.13    0.00    0.00    0.00   75.52    1.74    5.28    0.13    0.00    0.00    0.00    0.00    0.00     0.00    0.00    0.00    0.00
  243    5.10    0.00    1.18    0.00    0.00    0.00   76.60    2.29    3.58    1.19    0.00    0.00    0.00    0.00    0.00     0.00    0.00    0.00    0.00
    8  467.80  176.48  202.00    0.11    1.04    0.00   76.60   72.43  112.62  378.64    2.37    0.01    0.19    0.01    0.00     1.86    0.01    0.23    0.00
  244   44.70   15.82   12.95    0.00    0.08    0.00   83.40    2.89    3.08   28.73    0.50    0.00    0.01    0.00    0.00     0.34    0.00    0.04    0.00
  245    2.80    0.04    4.98    0.00    0.00    0.00   82.84    2.51    2.65    5.07    0.00    0.00    0.00    0.00    0.00     0.00    0.00    0.00    0.00
  246    1.30    0.00    1.79    0.00    0.00    0.00   82.33    1.68    1.74    1.80    0.00    0.00    0.00    0.00    0.00     0.00    0.00    0.00    0.00
  247    0.00    0.00    0.61    0.00    0.00    0.00   80.33    2.00    3.45    0.62    0.00    0.00    0.00    0.00    0.00     0.00    0.00    0.00    0.00
  248    0.00    0.00    0.21    0.00    0.00    0.00   78.43    1.90    4.25    0.22    0.00    0.00    0.00    0.00    0.00     0.00    0.00    0.00    0.00
  249    0.00    0.00    0.07    0.00    0.00    0.00   76.76    1.67    4.63    0.08    0.00    0.00    0.00    0.00    0.00     0.00    0.00    0.00    0.00
  250   25.10    4.45    7.66    0.00    0.02    0.00   81.38    4.37    5.44   12.10    0.14    0.00    0.00    0.00    0.00     0.08    0.00    0.01    0.00
  251   12.70    0.85    7.34    0.00    0.04    0.00   82.98    3.04    3.31    8.21    0.00    0.00    0.01    0.00    0.00     0.00    0.00    0.00    0.00
  252    7.40    0.28    5.09    0.00    0.02    0.00   83.26    2.91    3.11    5.38    0.00    0.00    0.00    0.00    0.00     0.00    0.00    0.00    0.00
  253    3.60    0.07    2.51    0.00    0.00    0.00   81.90    3.73    4.51    2.59    0.00    0.00    0.00    0.00    0.00     0.00    0.00    0.00    0.00
  254    0.30    0.00    0.86    0.00    0.00    0.00   78.83    3.37    6.16    0.87    0.00    0.00    0.00    0.00    0.00     0.00    0.00    0.00    0.00
  255    1.30    0.00    0.33    0.00    0.00    0.00   76.53    3.55    6.83    0.34    0.00    0.00    0.00    0.00    0.00     0.00    0.00    0.00    0.00
  256    8.40    0.04    2.31    0.00    0.00    0.00   77.69    3.85    5.95    2.36    0.00    0.00    0.00    0.00    0.00     0.00    0.00    0.00    0.00
  257    0.30    0.00    0.79    0.00    0.00    0.00   75.69    2.30    5.12    0.80    0.00    0.00    0.00    0.00    0.00     0.00    0.00    0.00    0.00
  258    2.30    0.00    0.61    0.00    0.00    0.00   74.86    2.62    4.99    0.61    0.00    0.00    0.00    0.00    0.00     0.00    0.00    0.00    0.00
  259    3.30    0.00    0.88    0.00    0.00    0.00   74.36    2.77    5.39    0.89    0.00    0.00    0.00    0.00    0.00     0.00    0.00    0.00    0.00
  260    5.60    0.01    1.67    0.00    0.00    0.00   75.50    2.38    3.56    1.68    0.00    0.00    0.00    0.00    0.00     0.00    0.00    0.00    0.00
  261   16.50    1.28    5.77    0.00    0.01    0.00   78.82    3.97    4.89    7.05    0.03    0.00    0.00    0.00    0.00     0.01    0.00    0.00    0.00
  262    0.30    0.00    1.98    0.00    0.00    0.00   76.63    2.49    4.39    2.00    0.00    0.00    0.00    0.00    0.00     0.00    0.00    0.00    0.00
  263    0.30    0.00    0.68    0.00    0.00    0.00   74.22    2.71    6.42    0.69    0.00    0.00    0.00    0.00    0.00     0.00    0.00    0.00    0.00
  264   14.70    0.46    4.48    0.00    0.01    0.00   78.36    3.62    4.35    4.94    0.02    0.00    0.00    0.00    0.00     0.01    0.00    0.00    0.00
  265    1.50    0.00    1.68    0.00    0.00    0.00   76.43    3.22    4.54    1.69    0.00    0.00    0.00    0.00    0.00     0.00    0.00    0.00    0.00
  266    0.30    0.00    0.58    0.00    0.00    0.00   73.56    3.17    6.91    0.58    0.00    0.00    0.00    0.00    0.00     0.00    0.00    0.00    0.00
  267    0.00    0.00    0.20    0.00    0.00    0.00   71.45    2.12    6.87    0.20    0.00    0.00    0.00    0.00    0.00     0.00    0.00    0.00    0.00
  268    0.50    0.00    0.07    0.00    0.00    0.00   69.82    2.13    7.18    0.07    0.00    0.00    0.00    0.00    0.00     0.00    0.00    0.00    0.00
  269    0.00    0.00    0.02    0.00    0.00    0.00   68.19    1.63    7.49    0.03    0.00    0.00    0.00    0.00    0.00     0.00    0.00    0.00    0.00
  270    0.00    0.00    0.01    0.00    0.00    0.00   66.68    1.51    8.04    0.01    0.00    0.00    0.00    0.00    0.00     0.00    0.00    0.00    0.00
  271   10.90    0.03    2.87    0.00    0.00    0.00   70.14    3.04    5.92    2.91    0.00    0.00    0.00    0.00    0.00     0.00    0.00    0.00    0.00
  272    0.30    0.00    0.98    0.00    0.00    0.00   68.78    1.66    4.02    0.99    0.00    0.00    0.00    0.00    0.00     0.00    0.00    0.00    0.00
  273    2.30    0.00    0.67    0.00    0.00    0.00   68.18    2.40    5.20    0.68    0.00    0.00    0.00    0.00    0.00     0.00    0.00    0.00    0.00
    9  166.70   23.34   70.65    0.14    0.19    0.00   68.18   81.20  150.39   94.18    0.71    0.00    0.04    0.00    0.00     0.44    0.00    0.05    0.00
  274    0.00    0.00    0.23    0.00    0.00    0.00   66.85    1.32    5.18    0.24    0.00    0.00    0.00    0.00    0.00     0.00    0.00    0.00    0.00
  275    7.10    0.01    1.83    0.00    0.00    0.00   69.05    2.23    3.74    1.84    0.00    0.00    0.00    0.00    0.00     0.00    0.00    0.00    0.00
  276    0.50    0.00    0.63    0.00    0.00    0.00   67.68    1.86    4.51    0.63    0.00    0.00    0.00    0.00    0.00     0.00    0.00    0.00    0.00
  277    0.00    0.00    0.22    0.00    0.00    0.00   66.17    1.51    5.98    0.22    0.00    0.00    0.00    0.00    0.00     0.00    0.00    0.00    0.00
  278    0.50    0.00    0.07    0.00    0.00    0.00   65.10    1.57    5.73    0.08    0.00    0.00    0.00    0.00    0.00     0.00    0.00    0.00    0.00
  279    1.50    0.00    0.12    0.00    0.00    0.00   64.70    1.76    3.84    0.12    0.00    0.00    0.00    0.00    0.00     0.00    0.00    0.00    0.00
  280    2.50    0.00    0.48    0.00    0.00    0.00   64.59    1.95    4.35    0.48    0.00    0.00    0.00    0.00    0.00     0.00    0.00    0.00    0.00
  281    0.30    0.00    0.16    0.00    0.00    0.00   63.92    0.97    3.21    0.17    0.00    0.00    0.00    0.00    0.00     0.00    0.00    0.00    0.00
  282    0.50    0.00    0.06    0.00    0.00    0.00   63.12    1.30    4.46    0.06    0.00    0.00    0.00    0.00    0.00     0.00    0.00    0.00    0.00
  283   72.40   28.93   15.72    0.00    0.03    0.00   78.99    3.65    4.38   44.63    0.93    0.00    0.02    0.00    0.00     0.82    0.00    0.10    0.00
  284    9.90    0.57    8.77    0.00    0.02    0.00   79.38    3.80    4.57    9.35    0.00    0.00    0.01    0.00    0.00     0.00    0.00    0.00    0.00
  285    0.30    0.00    3.01    0.00    0.01    0.00   77.14    2.53    4.35    3.03    0.00    0.00    0.00    0.00    0.00     0.00    0.00    0.00    0.00
  286    6.10    0.28    2.50    0.00    0.01    0.00   77.19    3.53    4.77    2.78    0.00    0.00    0.00    0.00    0.00     0.00    0.00    0.00    0.00
  287    0.30    0.00    0.86    0.00    0.01    0.00   74.60    2.88    6.00    0.87    0.00    0.00    0.00    0.00    0.00     0.00    0.00    0.00    0.00
  288   43.70   14.91   13.29    0.00    0.03    0.00   79.46    4.11    5.04   28.14    0.83    0.00    0.02    0.00    0.00     0.61    0.00    0.08    0.00
  289    0.00    0.00    4.56    0.00    0.01    0.00   76.81    2.64    5.45    4.62    0.00    0.00    0.01    0.00    0.00     0.00    0.00    0.00    0.00
  290    2.30    0.05    1.88    0.00    0.01    0.00   75.44    3.13    5.41    1.94    0.00    0.00    0.00    0.00    0.00     0.00    0.00    0.00    0.00
  291    2.00    0.03    0.93    0.00    0.01    0.00   73.54    3.43    6.87    0.97    0.00    0.00    0.00    0.00    0.00     0.00    0.00    0.00    0.00
  292   27.40    5.63    8.77    0.00    0.02    0.00   78.32    4.10    5.03   14.37    0.14    0.00    0.01    0.00    0.00     0.10    0.00    0.01    0.00
  293    6.10    0.28    4.56    0.00    0.01    0.00   77.51    4.26    5.31    4.87    0.00    0.00    0.00    0.00    0.00     0.00    0.00    0.00    0.00
  294    0.00    0.00    1.57    0.00    0.01    0.00   74.87    2.63    5.59    1.58    0.00    0.00    0.00    0.00    0.00     0.00    0.00    0.00    0.00
  295    0.00    0.00    0.54    0.00    0.01    0.00   72.91    1.95    5.41    0.54    0.00    0.00    0.00    0.00    0.00     0.00    0.00    0.00    0.00
  296    0.00    0.00    0.19    0.00    0.00    0.00   70.69    2.22    7.16    0.19    0.00    0.00    0.00    0.00    0.00     0.00    0.00    0.00    0.00
  297    1.00    0.00    0.06    0.00    0.00    0.00   69.24    2.44    6.12    0.07    0.00    0.00    0.00    0.00    0.00     0.00    0.00    0.00    0.00
  298    0.00    0.00    0.02    0.00    0.00    0.00   67.55    1.69    6.24    0.03    0.00    0.00    0.00    0.00    0.00     0.00    0.00    0.00    0.00
  299    0.00    0.00    0.01    0.00    0.00    0.00   66.10    1.45    6.22    0.01    0.00    0.00    0.00    0.00    0.00     0.00    0.00    0.00    0.00
  300    0.00    0.00    0.00    0.00    0.00    0.00   64.39    1.71    7.96    0.01    0.00    0.00    0.00    0.00    0.00     0.00    0.00    0.00    0.00
  301    0.00    0.00    0.00    0.00    0.00    0.00   63.15    1.24    6.86    0.00    0.00    0.00    0.00    0.00    0.00     0.00    0.00    0.00    0.00
  302    0.30    0.00    0.00    0.00    0.00    0.00   62.45    1.00    4.85    0.00    0.00    0.00    0.00    0.00    0.00     0.00    0.00    0.00    0.00
  303   12.70    0.05    3.41    0.00    0.00    0.00   67.36    2.53    4.76    3.47    0.01    0.00    0.00    0.00    0.00     0.00    0.00    0.00    0.00
  304   37.10    9.73   11.84    0.00    0.02    0.00   74.89    3.57    4.22   21.53    0.50    0.00    0.01    0.00    0.00     0.38    0.00    0.05    0.00
   10  234.50   60.45   86.31    0.10    0.22    0.00   74.89   74.95  163.58  146.85    2.40    0.01    0.09    0.00    0.00     1.92    0.00    0.24    0.00
  305    1.30    0.00    4.15    0.00    0.00    0.00   72.37    3.70    5.51    4.19    0.00    0.00    0.00    0.00    0.00     0.00    0.00    0.00    0.00
  306    3.60    0.03    2.19    0.00    0.00    0.00   72.60    2.17    2.62    2.23    0.00    0.00    0.00    0.00    0.00     0.00    0.00    0.00    0.00
  307    0.00    0.00    0.75    0.00    0.00    0.00   69.89    2.71    6.10    0.76    0.00    0.00    0.00    0.00    0.00     0.00    0.00    0.00    0.00
  308    0.00    0.00    0.26    0.00    0.00    0.00   67.59    2.30    7.62    0.26    0.00    0.00    0.00    0.00    0.00     0.00    0.00    0.00    0.00
  309    0.00    0.00    0.09    0.00    0.00    0.00   65.84    1.74    7.33    0.09    0.00    0.00    0.00    0.00    0.00     0.00    0.00    0.00    0.00
  310    0.00    0.00    0.03    0.00    0.00    0.00   64.35    1.49    7.25    0.03    0.00    0.00    0.00    0.00    0.00     0.00    0.00    0.00    0.00
  311    0.00    0.00    0.01    0.00    0.00    0.00   63.06    1.30    7.05    0.01    0.00    0.00    0.00    0.00    0.00     0.00    0.00    0.00    0.00
  312    3.00    0.00    0.51    0.00    0.00    0.00   62.93    2.35    6.63    0.52    0.00    0.00    0.00    0.00    0.00     0.00    0.00    0.00    0.00
  313    5.30    0.00    1.45    0.00    0.00    0.00   63.96    2.33    5.37    1.46    0.00    0.00    0.00    0.00    0.00     0.00    0.00    0.00    0.00
  314    3.60    0.00    1.26    0.00    0.00    0.00   64.57    1.83    3.14    1.27    0.00    0.00    0.00    0.00    0.00     0.00    0.00    0.00    0.00
  315    3.00    0.00    1.02    0.00    0.00    0.00   64.53    2.14    4.07    1.03    0.00    0.00    0.00    0.00    0.00     0.00    0.00    0.00    0.00
  316    1.30    0.00    0.43    0.00    0.00    0.00   63.74    1.97    3.88    0.43    0.00    0.00    0.00    0.00    0.00     0.00    0.00    0.00    0.00
  317   38.40    9.17   11.04    0.00    0.02    0.00   72.71    3.64    4.37   20.19    0.49    0.00    0.01    0.00    0.00     0.38    0.00    0.05    0.00
  318    0.00    0.00    3.79    0.00    0.00    0.00   70.86    1.85    3.45    3.83    0.00    0.00    0.00    0.00    0.00     0.00    0.00    0.00    0.00
  319    0.00    0.00    1.30    0.00    0.00    0.00   70.21    0.65    1.43    1.31    0.00    0.00    0.00    0.00    0.00     0.00    0.00    0.00    0.00
  320    0.00    0.00    0.45    0.00    0.00    0.00   68.17    2.04    5.47    0.45    0.00    0.00    0.00    0.00    0.00     0.00    0.00    0.00    0.00
  321    0.00    0.00    0.15    0.00    0.00    0.00   66.96    1.21    3.82    0.16    0.00    0.00    0.00    0.00    0.00     0.00    0.00    0.00    0.00
  322    9.40    0.23    2.47    0.00    0.00    0.00   68.87    3.56    5.34    2.71    0.00    0.00    0.00    0.00    0.00     0.00    0.00    0.00    0.00
  323    4.80    0.06    1.98    0.00    0.00    0.00   67.79    4.11    6.50    2.04    0.00    0.00    0.00    0.00    0.00     0.00    0.00    0.00    0.00
  324    8.60    0.14    2.95    0.00    0.00    0.00   70.12    2.67    3.01    3.09    0.00    0.00    0.00    0.00    0.00     0.00    0.00    0.00    0.00
  325    2.30    0.01    1.39    0.00    0.00    0.00   68.40    3.43    4.73    1.40    0.00    0.00    0.00    0.00    0.00     0.00    0.00    0.00    0.00
  326    3.30    0.01    1.15    0.00    0.00    0.00   67.84    2.82    3.88    1.17    0.00    0.00    0.00    0.00    0.00     0.00    0.00    0.00    0.00
  327    0.30    0.00    0.40    0.00    0.00    0.00   66.01    2.13    4.40    0.40    0.00    0.00    0.00    0.00    0.00     0.00    0.00    0.00    0.00
  328   48.30   15.05   14.27    0.00    0.03    0.00   73.99    3.71    4.43   29.29    1.40    0.00    0.03    0.00    0.00     1.01    0.00    0.12    0.00
  329    0.00    0.00    4.90    0.00    0.00    0.00   71.34    2.65    5.11    4.94    0.00    0.00    0.01    0.00    0.00     0.00    0.00    0.00    0.00
  330    0.00    0.00    1.68    0.00    0.00    0.00   68.89    2.45    6.46    1.69    0.00    0.00    0.00    0.00    0.00     0.00    0.00    0.00    0.00
  331    5.30    0.16    1.78    0.00    0.00    0.00   68.77    3.43    6.02    1.94    0.00    0.00    0.00    0.00    0.00     0.00    0.00    0.00    0.00
  332    6.10    0.19    2.13    0.00    0.00    0.00   69.09    3.28    5.12    2.31    0.00    0.00    0.00    0.00    0.00     0.00    0.00    0.00    0.00
  333    0.50    0.00    0.73    0.00    0.00    0.00   66.80    2.79    6.09    0.74    0.00    0.00    0.00    0.00    0.00     0.00    0.00    0.00    0.00
  334   32.50    7.03   10.49    0.00    0.02    0.00   73.34    3.31    3.78   17.49    0.21    0.00    0.01    0.00    0.00     0.18    0.00    0.02    0.00
   11  180.90   32.08   75.22    0.07    0.10    0.00   73.34   75.76  149.96  107.42    2.10    0.00    0.08    0.00    0.00     1.57    0.00    0.20    0.00
  335   10.90    0.53    7.86    0.00    0.01    0.00   73.30    3.92    4.76    8.41    0.00    0.00    0.01    0.00    0.00     0.00    0.00    0.00    0.00
  336    0.30    0.00    2.70    0.00    0.00    0.00   72.30    1.30    2.20    2.71    0.00    0.00    0.00    0.00    0.00     0.00    0.00    0.00    0.00
  337    5.80    0.15    2.36    0.00    0.00    0.00   71.69    4.08    5.42    2.51    0.00    0.00    0.00    0.00    0.00     0.00    0.00    0.00    0.00
  338    2.30    0.01    1.19    0.00    0.00    0.00   70.08    3.33    5.02    1.20    0.00    0.00    0.00    0.00    0.00     0.00    0.00    0.00    0.00
  339    4.30    0.02    1.38    0.00    0.00    0.00   69.71    3.16    4.69    1.41    0.00    0.00    0.00    0.00    0.00     0.00    0.00    0.00    0.00
  340   22.60    2.88    8.47    0.00    0.02    0.00   73.20    4.02    4.92   11.34    0.14    0.00    0.01    0.00    0.00     0.11    0.00    0.01    0.00
  341   14.50    1.02    8.62    0.00    0.01    0.00   74.76    3.20    3.60    9.65    0.00    0.00    0.02    0.00    0.00     0.01    0.00    0.00    0.00
  342    0.50    0.00    2.96    0.00    0.00    0.00   72.36    2.90    4.58    2.98    0.00    0.00    0.01    0.00    0.00     0.00    0.00    0.00    0.00
  343   50.50   19.23   16.16    0.00    0.03    0.00   77.14    3.39    3.87   35.33    2.68    0.00    0.03    0.00    0.00     1.71    0.00    0.21    0.00
  344   21.60    3.42   14.27    0.00    0.10    0.00   78.58    3.36    3.81   17.73    0.00    0.00    0.03    0.00    0.00     0.17    0.00    0.02    0.00
  345   41.10   14.31   18.60    0.00    0.17    0.00   82.04    2.30    2.33   32.88    1.18    0.00    0.03    0.00    0.00     0.80    0.00    0.10    0.00
  346    1.30    0.00    6.47    0.00    0.00    0.00   80.26    2.96    3.53    6.52    0.00    0.00    0.01    0.00    0.00     0.00    0.00    0.00    0.00
  347   17.50    2.15    9.05    0.00    0.07    0.00   81.99    3.14    3.44   11.19    0.06    0.00    0.01    0.00    0.00     0.04    0.00    0.01    0.00
  348    8.40    0.38    6.16    0.00    0.03    0.00   81.34    4.00    4.78    6.55    0.00    0.00    0.01    0.00    0.00     0.00    0.00    0.00    0.00
  349    1.50    0.00    2.25    0.00    0.00    0.00   79.18    3.44    4.93    2.27    0.00    0.00    0.00    0.00    0.00     0.00    0.00    0.00    0.00
  350    1.00    0.00    0.77    0.00    0.00    0.00   76.65    3.53    6.39    0.78    0.00    0.00    0.00    0.00    0.00     0.00    0.00    0.00    0.00
  351    6.60    0.13    1.93    0.00    0.00    0.00   76.02    4.57    7.73    2.05    0.00    0.00    0.00    0.00    0.00     0.00    0.00    0.00    0.00
  352    3.30    0.00    1.34    0.00    0.00    0.00   74.48    3.81    7.43    1.34    0.00    0.00    0.00    0.00    0.00     0.00    0.00    0.00    0.00
  353    0.00    0.00    0.46    0.00    0.00    0.00   72.22    2.26    7.48    0.46    0.00    0.00    0.00    0.00    0.00     0.00    0.00    0.00    0.00
  354    6.40    0.01    1.70    0.00    0.00    0.00   72.99    3.28    6.55    1.71    0.00    0.00    0.00    0.00    0.00     0.00    0.00    0.00    0.00
  355    6.60    0.03    2.25    0.00    0.00    0.00   74.04    2.99    4.79    2.27    0.00    0.00    0.00    0.00    0.00     0.00    0.00    0.00    0.00
  356    0.00    0.00    0.77    0.00    0.00    0.00   72.15    1.90    5.03    0.78    0.00    0.00    0.00    0.00    0.00     0.00    0.00    0.00    0.00
  357    3.30    0.00    0.88    0.00    0.00    0.00   72.36    2.15    3.55    0.88    0.00    0.00    0.00    0.00    0.00     0.00    0.00    0.00    0.00
  358   16.30    0.91    5.19    0.00    0.01    0.00   76.73    3.57    4.26    6.10    0.03    0.00    0.00    0.00    0.00     0.02    0.00    0.00    0.00
  359    3.30    0.04    2.46    0.00    0.00    0.00   76.06    2.89    3.52    2.51    0.00    0.00    0.00    0.00    0.00     0.00    0.00    0.00    0.00
  360    2.00    0.01    1.13    0.00    0.00    0.00   74.98    2.64    3.42    1.14    0.00    0.00    0.00    0.00    0.00     0.00    0.00    0.00    0.00
  361    1.00    0.00    0.39    0.00    0.00    0.00   73.16    2.82    4.38    0.39    0.00    0.00    0.00    0.00    0.00     0.00    0.00    0.00    0.00
  362    0.00    0.00    0.13    0.00    0.00    0.00   71.10    2.06    5.33    0.14    0.00    0.00    0.00    0.00    0.00     0.00    0.00    0.00    0.00
  363    7.10    0.01    1.79    0.00    0.00    0.00   72.02    3.51    5.82    1.81    0.00    0.00    0.00    0.00    0.00     0.00    0.00    0.00    0.00
  364    1.00    0.00    0.62    0.00    0.00    0.00   70.83    2.20    3.69    0.62    0.00    0.00    0.00    0.00    0.00     0.00    0.00    0.00    0.00
  365   48.80   16.56   13.27    0.00    0.03    0.00   79.27    3.88    4.62   29.79    2.86    0.00    0.01    0.00    0.00     1.67    0.00    0.21    0.00
   12  309.80   61.79  143.58    0.08    0.49    0.00   79.27   96.56  145.84  205.48    6.94    0.00    0.20    0.01    0.00     4.53    0.00    0.56    0.00

 2013 3096.30  775.91 1392.03    2.61   12.86    0.00   79.27  908.59 1499.49 2171.35   40.25    0.04    1.52    0.23    6.15    40.78    0.05    5.00    0.00
1
    SWAT Dec 23 2016    VER 2016/Rev 664                                            

    General Input/Output section (file.cio):                                        
    2/11/2020 20:48:05 QSWAT Workflow v1.5.2                                        
                                                                                    
Annual Summary for Watershed in year   10 of simulation

UNIT                                    PERCO    TILE                           WATER     SED     NO3     NO3     NO3     NO3        N       P       P
TIME     PREC    SURQ    LATQ     GWQ    LATE       Q     SW       ET     PET   YIELD   YIELD    SURQ    LATQ    PERC    CROP  ORGANIC SOLUBLE ORGANIC TILENO3
         (mm)    (mm)    (mm)    (mm)    (mm)    (mm)    (mm)    (mm)    (mm)    (mm)   (t/ha)  ------------------(kg nutrient/ha)-------------------- (kg/ha)
    1   88.40   51.68   23.75    0.00    0.16    0.00   84.40    2.19    2.21   75.34    5.06    0.00    0.04    0.00    0.00    11.78    0.00    1.44    0.00
    2   60.50   29.96   24.65    0.00    0.23    0.00   87.13    2.47    2.49   54.64    0.00    0.00    0.04    0.00    0.00     4.96    0.00    0.61    0.00
    3   51.10   23.26   24.10    0.00    0.66    0.00   86.92    3.56    4.03   47.39    3.01    0.00    0.04    0.01    0.00     3.50    0.00    0.43    0.00
    4   32.50   10.18   20.08    0.00    0.64    0.00   86.86    3.76    4.34   30.30    0.00    0.00    0.03    0.01    0.00     1.02    0.00    0.13    0.00
    5    3.60    0.11    7.67    0.00    0.00    0.00   85.86    3.31    4.01    7.82    0.00    0.00    0.01    0.00    0.00     0.00    0.00    0.00    0.00
    6   38.60   13.97   15.31    0.00    0.59    0.00   88.18    2.40    2.42   29.25    2.19    0.00    0.02    0.01    0.00     2.19    0.00    0.27    0.00
    7   32.30   10.24   17.46    0.00    0.77    0.00   88.25    2.64    2.66   27.71    0.00    0.00    0.03    0.01    0.00     1.45    0.00    0.18    0.00
    8   29.50    8.55   17.41    0.00    0.68    0.00   88.24    2.90    2.99   25.96    1.05    0.00    0.03    0.01    0.00     1.02    0.00    0.13    0.00
    9   29.20    8.37   17.21    0.00    0.65    0.00   88.55    2.76    2.79   25.59    0.00    0.00    0.03    0.01    0.00     0.84    0.00    0.10    0.00
   10    2.50    0.05    6.35    0.00    0.01    0.00   87.13    3.19    3.70    6.45    0.00    0.00    0.01    0.00    0.00     0.00    0.00    0.00    0.00
   11    1.30    0.01    2.26    0.00    0.00    0.00   85.37    2.93    3.85    2.28    0.00    0.00    0.00    0.00    0.00     0.00    0.00    0.00    0.00
   12    0.50    0.00    0.78    0.00    0.00    0.00   83.43    2.44    4.20    0.78    0.00    0.00    0.00    0.00    0.00     0.00    0.00    0.00    0.00
   13    0.50    0.00    0.27    0.00    0.00    0.00   81.62    2.30    4.87    0.27    0.00    0.00    0.00    0.00    0.00     0.00    0.00    0.00    0.00
   14    7.10    0.27    1.86    0.00    0.00    0.00   81.94    3.81    6.05    2.14    0.00    0.00    0.00    0.00    0.00     0.00    0.00    0.00    0.00
   15    0.00    0.00    0.64    0.01    0.00    0.00   79.35    2.59    6.64    0.65    0.00    0.00    0.00    0.00    0.00     0.00    0.00    0.00    0.00
   16   45.50   17.30   11.84    0.01    0.04    0.00   85.36    4.43    5.37   29.10    1.82    0.00    0.01    0.00    0.00     1.81    0.00    0.22    0.00
   17    0.50    0.00    4.07    0.01    0.00    0.00   83.22    2.64    4.28    4.12    0.00    0.00    0.00    0.00    0.00     0.00    0.00    0.00    0.00
   18    0.00    0.00    1.40    0.01    0.00    0.00   81.21    2.01    4.81    1.41    0.00    0.00    0.00    0.00    0.00     0.00    0.00    0.00    0.00
   19    2.80    0.00    0.94    0.01    0.00    0.00   80.30    3.01    5.15    0.95    0.00    0.00    0.00    0.00    0.00     0.00    0.00    0.00    0.00
   20    8.10    0.03    2.43    0.01    0.00    0.00   81.60    3.57    5.20    2.46    0.00    0.00    0.00    0.00    0.00     0.00    0.00    0.00    0.00
   21    1.00    0.00    0.83    0.01    0.00    0.00   79.48    3.12    5.50    0.84    0.00    0.00    0.00    0.00    0.00     0.00    0.00    0.00    0.00
   22    5.30    0.00    1.56    0.01    0.00    0.00   79.12    3.72    6.58    1.57    0.00    0.00    0.00    0.00    0.00     0.00    0.00    0.00    0.00
   23    1.30    0.00    0.61    0.01    0.00    0.00   77.02    3.28    7.09    0.62    0.00    0.00    0.00    0.00    0.00     0.00    0.00    0.00    0.00
   24   11.20    0.10    3.22    0.01    0.00    0.00   79.52    4.01    5.79    3.33    0.03    0.00    0.00    0.00    0.00     0.01    0.00    0.00    0.00
   25   44.40   16.55   13.43    0.01    0.03    0.00   85.36    3.21    3.49   29.93    1.12    0.00    0.01    0.00    0.00     1.21    0.00    0.15    0.00
   26   33.80   10.74   16.32    0.01    0.22    0.00   87.05    3.32    3.64   27.07    0.00    0.00    0.02    0.00    0.00     0.81    0.00    0.10    0.00
   27    5.60    0.19    7.13    0.01    0.00    0.00   85.48    4.67    5.73    7.36    0.00    0.00    0.01    0.00    0.00     0.00    0.00    0.00    0.00
   28    0.50    0.00    2.45    0.01    0.00    0.00   82.92    3.05    5.31    2.46    0.00    0.00    0.00    0.00    0.00     0.00    0.00    0.00    0.00
   29    0.80    0.00    0.84    0.01    0.00    0.00   80.83    2.89    5.71    0.85    0.00    0.00    0.00    0.00    0.00     0.00    0.00    0.00    0.00
   30    4.80    0.02    1.39    0.01    0.00    0.00   80.41    3.52    6.09    1.42    0.00    0.00    0.00    0.00    0.00     0.00    0.00    0.00    0.00
   31    6.40    0.03    2.08    0.01    0.00    0.00   80.70    3.65    5.79    2.11    0.00    0.00    0.00    0.00    0.00     0.00    0.00    0.00    0.00
    1  549.60  201.61  250.34    0.15    4.72    0.00   80.70   97.36  142.80  452.18   14.29    0.00    0.34    0.06    0.00    30.62    0.01    3.76    0.00
   32    1.00    0.00    0.71    0.01    0.00    0.00   78.83    2.87    5.40    0.72    0.00    0.00    0.00    0.00    0.00     0.00    0.00    0.00    0.00
   33    3.00    0.00    0.83    0.01    0.00    0.00   77.61    3.32    7.01    0.84    0.00    0.00    0.00    0.00    0.00     0.00    0.00    0.00    0.00
   34    0.50    0.00    0.29    0.01    0.00    0.00   75.87    2.25    6.30    0.29    0.00    0.00    0.00    0.00    0.00     0.00    0.00    0.00    0.00
   35    0.00    0.00    0.10    0.01    0.00    0.00   74.29    1.58    6.38    0.11    0.00    0.00    0.00    0.00    0.00     0.00    0.00    0.00    0.00
   36    0.00    0.00    0.03    0.01    0.00    0.00   72.95    1.33    6.33    0.04    0.00    0.00    0.00    0.00    0.00     0.00    0.00    0.00    0.00
   37    0.00    0.00    0.01    0.01    0.00    0.00   72.10    0.86    4.47    0.02    0.00    0.00    0.00    0.00    0.00     0.00    0.00    0.00    0.00
   38    0.00    0.00    0.00    0.01    0.00    0.00   70.69    1.41    5.43    0.01    0.00    0.00    0.00    0.00    0.02     0.00    0.00    0.00    0.00
   39   25.10    2.90    6.22    0.01    0.01    0.00   78.29    5.13    6.63    9.12    0.37    0.00    0.00    0.00    0.35     0.33    0.00    0.04    0.00
   40   26.40    5.72   10.52    0.01    0.02    0.00   81.29    4.88    5.90   16.22    0.11    0.00    0.00    0.00    0.40     0.43    0.00    0.05    0.00
   41    0.00    0.00    3.62    0.01    0.00    0.00   78.06    3.23    6.18    3.65    0.00    0.00    0.00    0.00    0.43     0.00    0.00    0.00    0.00
   42    0.00    0.00    1.24    0.01    0.00    0.00   75.31    2.74    6.18    1.25    0.00    0.00    0.00    0.00    0.47     0.00    0.00    0.00    0.00
   43    3.00    0.02    0.94    0.01    0.00    0.00   73.67    3.84    6.51    0.97    0.00    0.00    0.00    0.00    0.56     0.00    0.00    0.00    0.00
   44    2.00    0.00    0.60    0.01    0.00    0.00   71.53    3.72    5.89    0.60    0.00    0.00    0.00    0.00    0.62     0.00    0.00    0.00    0.00
   45   25.90    4.01    6.99    0.01    0.01    0.00   78.58    4.49    4.66   10.99    0.10    0.00    0.00    0.00    0.65     0.08    0.00    0.01    0.00
   46   17.30    2.01    8.41    0.01    0.01    0.00   80.65    4.07    4.10   10.42    0.00    0.00    0.00    0.00    0.53     0.01    0.00    0.00    0.00
   47    2.30    0.02    3.24    0.01    0.00    0.00   77.03    5.35    6.39    3.29    0.00    0.00    0.00    0.00    0.45     0.00    0.00    0.00    0.00
   48    4.10    0.07    2.00    0.01    0.00    0.00   76.58    3.13    3.33    2.08    0.00    0.00    0.00    0.00    0.44     0.00    0.00    0.00    0.00
   49   13.50    0.91    4.64    0.01    0.01    0.00   79.40    3.74    3.75    5.55    0.01    0.00    0.00    0.00    0.40     0.00    0.00    0.00    0.00
   50    2.00    0.01    1.89    0.01    0.00    0.00   76.56    4.37    4.69    1.92    0.00    0.00    0.00    0.00    0.19     0.00    0.00    0.00    0.00
   51   30.00    7.22    9.95    0.00    0.02    0.00   81.11    4.05    4.06   17.14    0.06    0.00    0.00    0.00    0.07     0.02    0.00    0.00    0.00
   52   51.60   22.25   18.13    0.01    0.10    0.00   83.86    4.08    4.09   40.36    0.15    0.00    0.01    0.00    0.04     0.08    0.00    0.01    0.00
   53    0.30    0.00    6.23    0.01    0.00    0.00   81.06    3.10    3.68    6.30    0.00    0.00    0.00    0.00    0.04     0.00    0.00    0.00    0.00
   54    0.80    0.00    2.14    0.01    0.00    0.00   78.08    3.78    4.65    2.15    0.00    0.00    0.00    0.00    0.04     0.00    0.00    0.00    0.00
   55   30.70    7.68    9.42    0.01    0.04    0.00   83.00    4.82    4.86   17.08    0.08    0.00    0.00    0.00    0.04     0.02    0.00    0.00    0.00
   56   30.50    8.39   13.53    0.01    0.12    0.00   84.44    4.87    5.04   21.92    0.01    0.00    0.00    0.00    0.04     0.02    0.00    0.00    0.00
   57   45.50   18.52   18.23    0.01    0.49    0.00   86.89    3.36    3.36   36.73    0.04    0.00    0.00    0.00    0.04     0.01    0.00    0.00    0.00
   58   35.80   12.28   18.80    0.01    0.74    0.00   85.82    4.74    4.86   31.10    0.06    0.00    0.00    0.00    0.04     0.02    0.00    0.00    0.00
   59    0.30    0.00    6.46    0.01    0.00    0.00   83.02    3.10    4.04    6.51    0.00    0.00    0.00    0.00    0.04     0.00    0.00    0.00    0.00
    2  351.60   92.01  155.18    0.15    1.60    0.00   83.02   98.20  144.17  247.38    0.98    0.00    0.03    0.00    5.88     1.02    0.00    0.13    0.00
   60    5.10    0.12    3.41    0.01    0.00    0.00   81.30    4.88    5.69    3.54    0.00    0.00    0.00    0.00    0.04     0.00    0.00    0.00    0.00
   61    6.60    0.17    2.80    0.01    0.00    0.00   81.08    4.17    4.70    2.98    0.00    0.00    0.00    0.00    0.04     0.00    0.00    0.00    0.00
   62    8.60    0.30    3.19    0.01    0.00    0.00   80.62    5.36    5.88    3.49    0.00    0.00    0.00    0.00    0.04     0.00    0.00    0.00    0.00
   63    3.60    0.03    1.83    0.01    0.00    0.00   78.68    4.39    4.95    1.87    0.00    0.00    0.00    0.00    0.04     0.00    0.00    0.00    0.00
   64    0.00    0.00    0.63    0.01    0.00    0.00   75.04    3.64    5.49    0.64    0.00    0.00    0.00    0.00    0.04     0.00    0.00    0.00    0.00
   65   47.20   15.05   11.22    0.01    0.03    0.00   85.60    4.79    4.80   26.28    0.21    0.00    0.00    0.00    0.04     0.03    0.00    0.00    0.00
[...]
  353    0.50    0.00    6.03    0.00    0.00    0.00   74.58    2.60    4.16    6.08    0.00    0.00    0.01    0.00    0.00     0.00    0.00    0.00    0.00
  354   39.90   12.71   14.95    0.00    0.13    0.00   79.10    2.92    3.12   27.62    1.03    0.00    0.03    0.00    0.00     1.00    0.00    0.12    0.00
  355    1.80    0.01    5.36    0.00    0.00    0.00   77.71    2.83    3.38    5.42    0.00    0.00    0.01    0.00    0.00     0.00    0.00    0.00    0.00
  356   23.40    4.20   10.79    0.00    0.09    0.00   79.54    3.64    4.25   14.98    0.31    0.00    0.02    0.00    0.00     0.27    0.00    0.03    0.00
  357   37.60   12.21   16.48    0.00    0.16    0.00   83.05    2.28    2.30   28.67    0.52    0.00    0.03    0.00    0.00     0.82    0.00    0.10    0.00
  358   37.80   12.96   18.66    0.00    0.18    0.00   85.69    2.21    2.23   31.62    1.24    0.00    0.03    0.00    0.00     1.45    0.00    0.18    0.00
  359    5.10    0.18    8.05    0.00    0.02    0.00   84.57    3.54    4.03    8.27    0.00    0.00    0.01    0.00    0.00     0.00    0.00    0.00    0.00
  360    9.90    0.54    6.44    0.00    0.03    0.00   84.66    3.64    4.18    6.98    0.01    0.00    0.01    0.00    0.00     0.00    0.00    0.00    0.00
  361    0.00    0.00    2.21    0.00    0.00    0.00   81.28    3.38    6.37    2.23    0.00    0.00    0.00    0.00    0.00     0.00    0.00    0.00    0.00
  362    0.00    0.00    0.76    0.00    0.00    0.00   80.23    1.04    2.62    0.77    0.00    0.00    0.00    0.00    0.00     0.00    0.00    0.00    0.00
  363   38.90   13.08   11.55    0.00    0.09    0.00   86.42    2.34    2.36   24.59    1.05    0.00    0.01    0.00    0.00     0.96    0.00    0.12    0.00
  364    3.00    0.05    4.56    0.00    0.00    0.00   84.86    3.62    4.22    4.65    0.00    0.00    0.00    0.00    0.00     0.00    0.00    0.00    0.00
  365   44.20   17.68   15.58    0.00    0.69    0.00   85.75    3.60    4.10   33.21    1.92    0.00    0.03    0.01    0.00     1.61    0.00    0.20    0.00
  366    1.50    0.00    5.49    0.00    0.00    0.00   82.30    4.73    7.16    5.55    0.00    0.00    0.01    0.00    0.00     0.00    0.00    0.00    0.00
   12  398.80   99.99  189.01    0.09    1.58    0.00   82.30   89.17  134.18  289.12    7.38    0.00    0.29    0.02    0.00     7.50    0.01    0.92    0.00

 2016 3003.70  863.81 1291.28    2.58   15.94    0.00   82.30  840.84 1726.05 2158.69   15.63    0.04    1.17    0.04    7.44    15.75    0.04    1.93    0.00
1
    SWAT Dec 23 2016    VER 2016/Rev 664                                            

    General Input/Output section (file.cio):                                        
    2/11/2020 20:48:05 QSWAT Workflow v1.5.2                                        
                                                                                    
    FINAL VALUES

1
    SWAT Dec 23 2016    VER 2016/Rev 664                                            

    General Input/Output section (file.cio):                                        
    2/11/2020 20:48:05 QSWAT Workflow v1.5.2                                        
                                                                                    
                                            Average Plant Values (kg/ha)

  HRU       1 SUB   1 FRSE  Yld =  2505.8 BIOM =   3579.7
  HRU       2 SUB   1 FRSE  Yld =  2485.5 BIOM =   3550.7
  HRU       3 SUB   1 FRSE  Yld =  4871.4 BIOM =   6959.2
  HRU       4 SUB   2 FRSE  Yld =  5216.3 BIOM =   7451.9
  HRU       5 SUB   2 FRSE  Yld =    46.0 BIOM =     65.8
  HRU       6 SUB   2 FRSE  Yld =    46.0 BIOM =     65.8
  HRU       7 SUB   2 FRSE  Yld =    46.0 BIOM =     65.8
  HRU       8 SUB   3 SWCH  Yld = 23556.8 BIOM =  40826.1
  HRU       9 SUB   3 FRSE  Yld =  2501.0 BIOM =   3572.8
  HRU      10 SUB   3 FRSE  Yld =  2484.3 BIOM =   3549.0
  HRU      11 SUB   3 FRSE  Yld =  5206.6 BIOM =   7437.9
  HRU      12 SUB   3 BARR  Yld =     0.0 BIOM =      0.9
  HRU      13 SUB   3 FRSD  Yld =  4056.7 BIOM =   8387.0
  HRU      14 SUB   4 FRSD  Yld =    42.1 BIOM =     88.2
  HRU      15 SUB   4 FRSD  Yld =    42.1 BIOM =     88.2
  HRU      16 SUB   4 FRSD  Yld =    42.1 BIOM =     88.2
  HRU      17 SUB   4 FRSD  Yld =  4108.5 BIOM =   8486.6
  HRU      18 SUB   4 FRSD  Yld =    42.1 BIOM =     88.2
  HRU      19 SUB   4 FRSD  Yld =    42.1 BIOM =     88.2
  HRU      20 SUB   4 FRSD  Yld =    42.1 BIOM =     88.2
  HRU      21 SUB   4 SWCH  Yld = 21647.7 BIOM =  37781.9
  HRU      22 SUB   4 FRSE  Yld =  2505.9 BIOM =   3579.8
  HRU      23 SUB   4 FRSE  Yld =  2487.5 BIOM =   3553.6
  HRU      24 SUB   4 FRSE  Yld =  5209.6 BIOM =   7442.2
  HRU      25 SUB   4 FRSE  Yld =    46.0 BIOM =     65.7
  HRU      26 SUB   4 FRSE  Yld =    46.0 BIOM =     65.7
  HRU      27 SUB   4 FRSE  Yld =    46.0 BIOM =     65.7
  HRU      28 SUB   4 FRSD  Yld =  4089.6 BIOM =   8449.9
  HRU      29 SUB   4 BARR  Yld =     0.0 BIOM =      0.9
  HRU      30 SUB   4 BARR  Yld =     0.0 BIOM =      0.7
  HRU      31 SUB   5 FRSE  Yld =  5220.9 BIOM =   7458.4
  HRU      32 SUB   5 FRSE  Yld =    46.1 BIOM =     65.8
  HRU      33 SUB   5 FRSE  Yld =    46.1 BIOM =     65.8
  HRU      34 SUB   5 FRSE  Yld =    46.1 BIOM =     65.8
  HRU      35 SUB   5 FRSE  Yld =  4749.1 BIOM =   6784.5
  HRU      36 SUB   5 FRSE  Yld =    46.1 BIOM =     65.8
  HRU      37 SUB   5 FRSE  Yld =    46.1 BIOM =     65.8
  HRU      38 SUB   5 FRSE  Yld =    46.1 BIOM =     65.8
  HRU      39 SUB   5 FRSE  Yld =  3084.8 BIOM =   4406.9
  HRU      40 SUB   5 FRSE  Yld =    46.1 BIOM =     65.8
  HRU      41 SUB   5 FRSE  Yld =    46.1 BIOM =     65.8
  HRU      42 SUB   5 FRSE  Yld =    46.1 BIOM =     65.8

    HRU STATISTICS

                AVE ANNUAL VALUES

   HRU  SUB  SOIL       AREAkm2    CN     AWCmm   USLE_LS  IRRmm  AUTONkh AUTOPkh  MIXEF PRECmm SURQGENmm   GWQmm    ETmm   SEDth  NO3kgh  ORGNkgh BIOMth   YLDth  SURQmm
      1   1   FAGASA     .103E-03   70.00   97.20    0.07    0.00    0.00    0.00    0.20 3445.52 1009.52 1325.06  997.02    0.03    0.02    0.70    3.58    2.51 1007.68
      2   1   FAGASA     .103E-03   70.00   97.20    0.38    0.00    0.00    0.00    0.20 3445.52 1009.10 1327.42  996.56    0.91    0.06   11.58    3.55    2.49 1009.09
      3   1   FAGASA     .119E+00   70.00   97.20    6.29    0.00    0.00    0.00    0.20 3445.52  941.63 1529.09  939.62   20.64    1.74   41.38    6.96    4.87  941.63
      4   2   FAGASA     .939E-01   70.00   97.20   10.22    0.00    0.00    0.00    0.20 3445.52  893.70 1619.09  917.15   29.12    1.66   42.30    7.45    5.22  893.70
      5   2   URBAN LA   .667E-02   77.00    1.50    4.16    0.00    0.00    0.00    0.20 3445.52 2326.09    0.05 1106.47    0.00    0.01    0.00    0.07    0.05 2326.09
      6   2   URBAN LA   .400E-02   77.00    1.50    2.58    0.00    0.00    0.00    0.20 3445.52 2326.18    0.00 1106.53    0.00    0.01    0.00    0.07    0.05 2326.18
      7   2   URBAN LA   .215E-02   77.00    1.50    2.44    0.00    0.00    0.00    0.20 3445.52 2326.17    0.00 1106.52    0.00    0.01    0.00    0.07    0.05 2326.17
      8   3   FAGASA     .616E-03   72.00   97.20    3.37    0.00  151.19    0.00    0.20 3445.52  964.60 1437.35 1003.52    0.17   16.90    2.50   36.26   23.56  964.60
      9   3   FAGASA     .205E-03   70.00   97.20    0.10    0.00    0.00    0.00    0.20 3445.52 1009.46 1325.34  997.02    0.18    0.02    3.12    3.57    2.50 1009.28
     10   3   FAGASA     .718E-03   70.00   97.20    0.28    0.00    0.00    0.00    0.20 3445.52 1009.18 1326.91  996.69    0.88    0.05   11.42    3.55    2.48 1009.17
     11   3   FAGASA     .479E+00   70.00   97.20   13.54    0.00    0.00    0.00    0.20 3445.52  893.66 1620.24  917.25   46.92    1.65   43.42    7.44    5.21  893.66
     12   3   FAGASA     .349E-02   91.00   97.20   16.49    0.00    0.00    0.00    0.20 3445.52 1895.90  766.48  782.60  553.56    1.71   49.85    0.00    0.00 1895.90
     13   3   FAGASA     .141E+00   77.00   97.20   21.12    0.00    0.00    0.00    0.20 3445.52 1130.73 1386.24  926.09   25.31    1.36   48.54    8.69    6.09 1130.73
     14   4   URBAN LA   .103E-03   77.00    1.50    0.10    0.00    0.00    0.00    0.20 3445.52 2324.92    0.00 1107.79    0.00    0.01    0.00    0.09    0.06 2324.51
     15   4   URBAN LA   .205E-03   77.00    1.50    0.26    0.00    0.00    0.00    0.20 3445.52 2324.92    0.00 1107.79    0.00    0.01    0.00    0.09    0.06 2324.86
     16   4   URBAN LA   .108E-01   77.00    1.50    2.20    0.00    0.00    0.00    0.20 3445.52 2324.89    0.01 1107.77    0.00    0.01    0.00    0.09    0.06 2324.89
     17   4   FAGASA     .103E-03   77.00   97.20   10.91    0.00    0.00    0.00    0.20 3445.52 1130.83 1385.47  925.90    5.31    1.42   33.15    8.80    6.16 1130.83
     18   4   URBAN LA   .205E-03   77.00    1.50    0.11    0.00    0.00    0.00    0.20 3445.52 2324.92    0.00 1107.79    0.00    0.01    0.00    0.09    0.06 2324.59
     19   4   URBAN LA   .103E-03   77.00    1.50    0.21    0.00    0.00    0.00    0.20 3445.52 2324.92    0.00 1107.79    0.00    0.01    0.00    0.09    0.06 2324.83
     20   4   URBAN LA   .257E-02   77.00    1.50    2.05    0.00    0.00    0.00    0.20 3445.52 2324.90    0.00 1107.78    0.00    0.01    0.00    0.09    0.06 2324.90
     21   4   FAGASA     .144E-02   72.00   97.20   12.99    0.00  146.54    0.00    0.20 3445.52  757.44 1731.29  951.60    0.64   17.46    7.97   33.43   21.65  757.44
     22   4   FAGASA     .103E-03   70.00   97.20    0.07    0.00    0.00    0.00    0.20 3445.52 1009.52 1325.07  997.00    0.03    0.02    0.70    3.58    2.51 1007.68
     23   4   FAGASA     .103E-03   70.00   97.20    0.35    0.00    0.00    0.00    0.20 3445.52 1009.12 1327.25  996.57    0.82    0.06   10.65    3.55    2.49 1009.11
     24   4   FAGASA     .384E+00   70.00   97.20   11.66    0.00    0.00    0.00    0.20 3445.52  893.69 1619.79  917.17   39.37    1.65   43.07    7.44    5.21  893.69
     25   4   URBAN LA   .308E-03   77.00    1.50    0.12    0.00    0.00    0.00    0.20 3445.52 2326.16    0.00 1106.57    0.00    0.01    0.00    0.07    0.05 2325.89
     26   4   URBAN LA   .308E-03   77.00    1.50    0.33    0.00    0.00    0.00    0.20 3445.52 2326.15    0.00 1106.57    0.00    0.01    0.00    0.07    0.05 2326.15
     27   4   URBAN LA   .260E-01   77.00    1.50    5.01    0.00    0.00    0.00    0.20 3445.52 2326.05    0.06 1106.49    0.00    0.01    0.00    0.07    0.05 2326.05
     28   4   FAGASA     .226E-02   77.00   97.20   11.93    0.00    0.00    0.00    0.20 3445.52 1130.86 1385.52  925.92    8.59    1.40   39.19    8.76    6.13 1130.86
     29   4   FAGASA     .146E-01   91.00   97.20   12.80    0.00    0.00    0.00    0.20 3445.52 1895.87  766.57  782.54  509.84    1.71   49.85    0.00    0.00 1895.87
     30   4   URBAN LA   .123E-02   94.00    1.50    3.13    0.00    0.00    0.00    0.20 3445.52 2598.92    0.01  842.39    0.00    0.08    0.00    0.00    0.00 2598.92
     31   5   FAGASA     .114E+00   70.00   97.20    9.47    0.00    0.00    0.00    0.20 3445.52  894.67 1616.95  917.30   27.60    1.65   42.13    7.46    5.22  894.67
     32   5   URBAN LA   .103E-03   77.00    1.50    0.16    0.00    0.00    0.00    0.20 3445.52 2326.23    0.00 1106.49    0.00    0.01    0.00    0.07    0.05 2326.09
     33   5   URBAN LA   .770E-02   77.00    1.50    0.29    0.00    0.00    0.00    0.20 3445.52 2326.23    0.00 1106.49    0.00    0.01    0.00    0.07    0.05 2326.18
     34   5   URBAN LA   .214E-01   77.00    1.50    3.56    0.00    0.00    0.00    0.20 3445.52 2326.15    0.05 1106.43    0.00    0.01    0.00    0.07    0.05 2326.15
     35   5   FAGASA     .123E-02   77.00   97.20    3.54    0.00    0.00    0.00    0.20 3445.52 1288.82 1162.28  956.02    9.47    1.63   37.54    6.78    4.75 1288.82
     36   5   URBAN LA   .154E-02   77.00    1.50    0.14    0.00    0.00    0.00    0.20 3445.52 2326.23    0.00 1106.49    0.00    0.01    0.00    0.07    0.05 2326.05
     37   5   URBAN LA   .831E-02   77.00    1.50    0.27    0.00    0.00    0.00    0.20 3445.52 2326.23    0.00 1106.49    0.00    0.01    0.00    0.07    0.05 2326.18
     38   5   URBAN LA   .103E-01   77.00    1.50    2.34    0.00    0.00    0.00    0.20 3445.52 2326.23    0.00 1106.49    0.00    0.01    0.00    0.07    0.05 2326.23
     39   5   FAGASA     .205E-03   77.00   97.20    3.07    0.00    0.00    0.00    0.20 3445.52 1324.29 1072.20  989.38   10.24    1.05   39.03    4.41    3.08 1324.29
     40   5   URBAN LA   .103E-03   77.00    1.50    0.15    0.00    0.00    0.00    0.20 3445.52 2326.23    0.00 1106.49    0.00    0.01    0.00    0.07    0.05 2326.07
     41   5   URBAN LA   .277E-02   77.00    1.50    0.28    0.00    0.00    0.00    0.20 3445.52 2326.23    0.00 1106.49    0.00    0.01    0.00    0.07    0.05 2326.22
     42   5   URBAN LA   .492E-02   77.00    1.50    2.41    0.00    0.00    0.00    0.20 3445.52 2326.23    0.00 1106.49    0.00    0.01    0.00    0.07    0.05 2326.23



                AVE MONTHLY BASIN VALUES
                   SNOW                      WATER               SED
  MON     RAIN     FALL   SURF Q    LAT Q    YIELD       ET    YIELD      PET
          (MM)     (MM)     (MM)     (MM)     (MM)     (MM)   (T/HA)     (MM)
    1   482.70     0.00   168.38   216.57   385.26    92.94    14.28   144.59
    2   253.79     0.00    62.24   118.61   181.47    92.86     4.59   147.84
    3   198.40     0.00    29.41    80.17   110.04   101.62     0.32   138.82
    4   514.13     0.00   184.36   207.14   391.63    88.67     1.27   122.00
    5   208.30     0.00    48.84   103.44   152.82    71.38     0.35   133.43
    6   184.15     0.00    50.27    77.53   128.19    57.44     0.44   130.69
    7   302.85     0.00   131.41    99.38   230.93    62.39     1.07   127.72
    8   228.95     0.00    61.38   102.90   164.58    70.16     0.77   152.17
    9   118.50     0.00    12.93    49.89    62.95    59.47     0.33   138.40
   10   173.78     0.00    29.77    72.11   101.97    67.27     0.90   162.02
   11   347.38     0.00   109.07   148.94   258.11    79.93     4.99   144.68
   12   439.18     0.00   156.27   178.97   335.37    90.90    10.94   146.90

     AVE ANNUAL BASIN STRESS DAYS
               WATER STRESS DAYS =     3.23
               TEMPERATURE STRESS DAYS =     0.12
               NITROGEN STRESS DAYS =    13.88
               PHOSPHORUS STRESS DAYS =     0.08
               AERATION STRESS DAYS =     0.01
1
    SWAT Dec 23 2016    VER 2016/Rev 664                                            

    General Input/Output section (file.cio):                                        
    2/11/2020 20:48:05 QSWAT Workflow v1.5.2                                        
                                                                                    
         AVE ANNUAL BASIN VALUES

              PRECIP =   3445.5 MM
              SNOW FALL =    0.00 MM
              SNOW MELT =     0.00 MM
              SUBLIMATION =     0.00 MM
              SURFACE RUNOFF Q =  1042.73 MM
              LATERAL SOIL Q = 1452.59 MM
              TILE Q =     0.00 MM
              GROUNDWATER (SHAL AQ) Q =     2.46 MM
              GROUNDWATER (DEEP AQ) Q =     0.83 MM
              REVAP (SHAL AQ => SOIL/PLANTS) =   31.63 MM
              DEEP AQ RECHARGE =     0.81 MM
              TOTAL AQ RECHARGE =   16.16 MM
              TOTAL WATER YLD =  2498.62 MM
              PERCOLATION OUT OF SOIL =   16.10 MM
              ET =    932.6 MM
              PET =   1685.4MM
              TRANSMISSION LOSSES =     0.00 MM
              SEPTIC INFLOW =       0.00 MM
              TOTAL SEDIMENT LOADING =     40.12 T/HA
              TILE FROM IMPOUNDED WATER =     0.000 (MM)
              EVAPORATION FROM IMPOUNDED WATER =     0.000 (MM)
              SEEPAGE INTO SOIL FROM IMPOUNDED WATER =    0.000 (MM)
              OVERFLOW FROM IMPOUNDED WATER =    0.000 (MM)
1
    SWAT Dec 23 2016    VER 2016/Rev 664                                            

    General Input/Output section (file.cio):                                        
    2/11/2020 20:48:05 QSWAT Workflow v1.5.2                                        
                                                                                    
              AVE ANNUAL BASIN VALUES


              NUTRIENTS
                   ORGANIC N =    40.159 (KG/HA)
                   ORGANIC P =     4.927 (KG/HA)
                   NO3 YIELD (SQ) =     0.042 (KG/HA)
                   NO3 YIELD (LAT) =    1.484 (KG/HA)
                   NO3 YIELD (TILE) =    0.000 (KG/HA)
                   SOLP YIELD (TILE) =    0.000(KG/HA)
                   SOLP YIELD (SURF INLET RISER) =    0.000 (KG/HA)
                   SOL P YIELD =    0.055 (KG/HA)
                   NO3 LEACHED =     0.171 (KG/HA)
                   P LEACHED =     0.006 (KG/HA)
                   N UPTAKE =     6.936 (KG/HA)
                   P UPTAKE =    1.653 (KG/HA)
                   NO3 YIELD (GWQ) =     0.000 (KG/HA)
                   ACTIVE TO SOLUTION P FLOW =         0.259 (KG/HA)
                   ACTIVE TO STABLE P FLOW =         0.605 (KG/HA)
                   N FERTILIZER APPLIED =     0.207 (KG/HA)
                   P FERTILIZER APPLIED =     0.000 (KG/HA)
                   N FIXATION =     0.000 (KG/HA)
                   DENITRIFICATION =     0.011 (KG/HA)
                   HUMUS MIN ON ACTIVE ORG N =    10.677 (KG/HA)
                   ACTIVE TO STABLE ORG N =    -9.191 (KG/HA)
                   HUMUS MIN ON ACTIVE ORG P =    1.822 (KG/HA)
                   MIN FROM FRESH ORG N =    1.190 (KG/HA)
                   MIN FROM FRESH ORG P =    0.302 (KG/HA)
                   NO3 IN RAINFALL =     0.000 (KG/HA)
                   INITIAL NO3 IN SOIL =      35.168 (KG/HA)
                   FINAL NO3 IN SOIL =         6.255 (KG/HA)
                   INITIAL ORG N IN SOIL =   10023.003 (KG/HA)
                   FINAL ORG N IN SOIL =      9132.841 (KG/HA)
                   INITIAL MIN P IN SOIL =    1612.242 (KG/HA)
                   FINAL MIN P IN SOIL =      1542.284 (KG/HA)
                   INITIAL ORG P IN SOIL =    1227.818 (KG/HA)
                   FINAL ORG P IN SOIL =    1112.346 (KG/HA)
                   NO3 IN FERT =     0.207 (KG/HA)
                   AMMONIA IN FERT =     0.000 (KG/HA)
                   ORG N IN FERT =     0.000 (KG/HA)
                   MINERAL P IN FERT =     0.000 (KG/HA)
                   ORG P IN FERT =     0.000 (KG/HA)
                   N REMOVED IN YIELD =     5.535 (KG/HA)
                   P REMOVED IN YIELD =     1.320 (KG/HA)
                   AMMONIA VOLATILIZATION =     0.000 (KG/HA)
                   AMMONIA NITRIFICATION =      0.000 (KG/HA)
                   NO3 EVAP-LAYER 2 TO 1 =    3.252

                   DIE-GRO P Q =           0.0 (No/M2)
                   DIE-GRO LP Q =           0.0 (No/M2)
                   DIE-GRO P SED =          0.0 (No/M2)
                   DIE-GRO LP SED =          0.0 (No/M2)
                   BACT P RUNOFF =          0.0 (No/M2)
                   BACT LP RUNOFF =          0.0 (No/M2)
                   BACT P SEDIMENT =          0.0 (No/M2)
                   BACT LP SEDIMENT =          0.0 (No/M2)
                   BACT P INCORP =          0.0 (No/M2)
                   BACT LP INCORP =          0.0 (No/M2)

                   NITRATE SEPTIC =         0.00 (kg/ha)
                   AMMONIA SEPTIC =         0.00 (kg/ha)
                   ORG N SEPTIC =         0.00 (kg/ha)
                   FRESH ORGN SEPTIC =         0.00 (kg/ha)
                   ORG P SEPTIC =         0.00 (kg/ha)
                   FRESH ORGP SEPTIC =         0.00 (kg/ha)
                   SOL P SEPTIC =         0.00 (kg/ha)
                   BOD SEPTIC =         0.00 (kg/ha)
