1
    SWAT Dec 23 2016    VER 2016/Rev 664                                                                 0/ 0/   0      0: 0: 0

    General Input/Output section (file.cio):                                        
    2/12/2020 14:35:46 QSWAT Workflow v1.5.2                                        
                                                                                    


       RCH      GIS   MON     AREAkm2  FLOW_INcms FLOW_OUTcms     EVAPcms    TLOSScms  SED_INtons SED_OUTtons SEDCONCmg/L   ORGN_INkg  ORGN_OUTkg   ORGP_INkg  ORGP_OUTkg    NO3_INkg   NO3_OUTkg    NH4_INkg   NH4_OUTkg    NO2_INkg   NO2_OUTkg   MINP_INkg  MINP_OUTkg   CHLA_INkg  CHLA_OUTkg   CBOD_INkg  CBOD_OUTkg  DISOX_INkg DISOX_OUTkg SOLPST_INmgSOLPST_OUTmg SORPST_INmgSORPST_OUTmg  REACTPSTmg    VOLPSTmg  SETTLPSTmgRESUSP_PSTmgDIFFUSEPSTmgREACBEDPSTmg   BURYPSTmg   BED_PSTmg BACTP_OUTctBACTLP_OUTct  CMETAL#1kg  CMETAL#2kg  CMETAL#3kg     TOT Nkg     TOT Pkg NO3ConcMg/l    WTMPdegc
REACH    1        0     1  0.2442E+00  0.4019E-01  0.4018E-01  0.4792E-05  0.0000E+00  0.9330E+01  0.9330E+01  0.2687E+04  0.1632E+02  0.1631E+02  0.3601E+01  0.3597E+01  0.2609E+00  0.2609E+00  0.0000E+00  0.8378E-02  0.0000E+00  0.0000E+00  0.5973E-02  0.9026E-02  0.5419E-01  0.5167E-01  0.6779E+03  0.6745E+03  0.2250E+02  0.3215E+00  0.0000E+00  0.0000E+00  0.0000E+00  0.0000E+00  0.0000E+00  0.0000E+00  0.0000E+00  0.0000E+00  0.0000E+00  0.0000E+00  0.0000E+00  0.0000E+00  0.0000E+00  0.0000E+00  0.0000E+00  0.0000E+00  0.0000E+00  0.1658E+02  0.3606E+01  0.7514E-01  0.2412E+02
REACH    2        0     1  0.1348E+00  0.2258E-01  0.2258E-01  0.3936E-06  0.0000E+00  0.4908E+01  0.4908E+01  0.2516E+04  0.8824E+01  0.8823E+01  0.1945E+01  0.1944E+01  0.1518E+00  0.1518E+00  0.0000E+00  0.6095E-03  0.0000E+00  0.0000E+00  0.4749E-02  0.4971E-02  0.2754E-01  0.2737E-01  0.3528E+03  0.3526E+03  0.1248E+02  0.1807E+00  0.0000E+00  0.0000E+00  0.0000E+00  0.0000E+00  0.0000E+00  0.0000E+00  0.0000E+00  0.0000E+00  0.0000E+00  0.0000E+00  0.0000E+00  0.0000E+00  0.0000E+00  0.0000E+00  0.0000E+00  0.0000E+00  0.0000E+00  0.8975E+01  0.1949E+01  0.7783E-01  0.2412E+02
REACH    3        0     1  0.1273E+00  0.2090E-01  0.2090E-01  0.1416E-05  0.0000E+00  0.3635E+01  0.3635E+01  0.2013E+04  0.7423E+01  0.7420E+01  0.1634E+01  0.1633E+01  0.1349E+00  0.1349E+00  0.0000E+00  0.1646E-02  0.0000E+00  0.0000E+00  0.2987E-02  0.3584E-02  0.2276E-01  0.2220E-01  0.2744E+03  0.2738E+03  0.1177E+02  0.1672E+00  0.0000E+00  0.0000E+00  0.0000E+00  0.0000E+00  0.0000E+00  0.0000E+00  0.0000E+00  0.0000E+00  0.0000E+00  0.0000E+00  0.0000E+00  0.0000E+00  0.0000E+00  0.0000E+00  0.0000E+00  0.0000E+00  0.0000E+00  0.7557E+01  0.1637E+01  0.7473E-01  0.2412E+02
REACH    4        0     1  0.1895E+00  0.3418E-01  0.3418E-01  0.3430E-05  0.0000E+00  0.5763E+01  0.5763E+01  0.1952E+04  0.8850E+01  0.8846E+01  0.1960E+01  0.1958E+01  0.3200E+00  0.3199E+00  0.0000E+00  0.3089E-02  0.0000E+00  0.0000E+00  0.2097E-01  0.2208E-01  0.3157E-01  0.3036E-01  0.4004E+03  0.3991E+03  0.1693E+02  0.2735E+00  0.0000E+00  0.0000E+00  0.0000E+00  0.0000E+00  0.0000E+00  0.0000E+00  0.0000E+00  0.0000E+00  0.0000E+00  0.0000E+00  0.0000E+00  0.0000E+00  0.0000E+00  0.0000E+00  0.0000E+00  0.0000E+00  0.0000E+00  0.9169E+01  0.1980E+01  0.1083E+00  0.2412E+02
REACH    5        0     1  0.2556E+00  0.4338E-01  0.4337E-01  0.3808E-05  0.0000E+00  0.6615E+01  0.6615E+01  0.1765E+04  0.1503E+02  0.1503E+02  0.3307E+01  0.3305E+01  0.3323E+00  0.3322E+00  0.0000E+00  0.4753E-02  0.0000E+00  0.0000E+00  0.1122E-01  0.1294E-01  0.5416E-01  0.5226E-01  0.5675E+03  0.5658E+03  0.2282E+02  0.3471E+00  0.0000E+00  0.0000E+00  0.0000E+00  0.0000E+00  0.0000E+00  0.0000E+00  0.0000E+00  0.0000E+00  0.0000E+00  0.0000E+00  0.0000E+00  0.0000E+00  0.0000E+00  0.0000E+00  0.0000E+00  0.0000E+00  0.0000E+00  0.1536E+02  0.3318E+01  0.8865E-01  0.2412E+02
REACH    6        0     1  0.5361E+00  0.8892E-01  0.8891E-01  0.6765E-05  0.0000E+00  0.1402E+02  0.1888E+01  0.2458E+03  0.3020E+02  0.3018E+02  0.6644E+01  0.6638E+01  0.6365E+00  0.6364E+00  0.6399E-02  0.1906E-01  0.0000E+00  0.0000E+00  0.2007E-01  0.2467E-01  0.9780E-01  0.9468E-01  0.1122E+04  0.1117E+04  0.1478E+02  0.7115E+00  0.0000E+00  0.0000E+00  0.0000E+00  0.0000E+00  0.0000E+00  0.0000E+00  0.0000E+00  0.0000E+00  0.0000E+00  0.0000E+00  0.0000E+00  0.0000E+00  0.0000E+00  0.0000E+00  0.0000E+00  0.0000E+00  0.0000E+00  0.3084E+02  0.6663E+01  0.8284E-01  0.2412E+02
REACH    7        0     1  0.8570E+00  0.1451E+00  0.1451E+00  0.4904E-05  0.0000E+00  0.1198E+02  0.3755E+01  0.2994E+03  0.4682E+02  0.4680E+02  0.1033E+02  0.1033E+02  0.1131E+01  0.1131E+01  0.2215E-01  0.3125E-01  0.0000E+00  0.0000E+00  0.5476E-01  0.5807E-01  0.1620E+00  0.1596E+00  0.1875E+04  0.1871E+04  0.1265E+02  0.1161E+01  0.0000E+00  0.0000E+00  0.0000E+00  0.0000E+00  0.0000E+00  0.0000E+00  0.0000E+00  0.0000E+00  0.0000E+00  0.0000E+00  0.0000E+00  0.0000E+00  0.0000E+00  0.0000E+00  0.0000E+00  0.0000E+00  0.0000E+00  0.4797E+02  0.1039E+02  0.9022E-01  0.2412E+02
REACH    8        0     1  0.1082E+01  0.1816E+00  0.1815E+00  0.8060E-05  0.0000E+00  0.9798E+01  0.4256E+01  0.2713E+03  0.5818E+02  0.5815E+02  0.1284E+02  0.1283E+02  0.1387E+01  0.1387E+01  0.3186E-01  0.4922E-01  0.0000E+00  0.0000E+00  0.6511E-01  0.7144E-01  0.2220E+00  0.2177E+00  0.2396E+04  0.2389E+04  0.9616E+01  0.1453E+01  0.0000E+00  0.0000E+00  0.0000E+00  0.0000E+00  0.0000E+00  0.0000E+00  0.0000E+00  0.0000E+00  0.0000E+00  0.0000E+00  0.0000E+00  0.0000E+00  0.0000E+00  0.0000E+00  0.0000E+00  0.0000E+00  0.0000E+00  0.5959E+02  0.1290E+02  0.8843E-01  0.2412E+02
REACH    9        0     1  0.1363E+01  0.2277E+00  0.2277E+00  0.3671E-05  0.0000E+00  0.1403E+02  0.4974E+01  0.2528E+03  0.7562E+02  0.7561E+02  0.1668E+02  0.1668E+02  0.1696E+01  0.1696E+01  0.5759E-01  0.6698E-01  0.0000E+00  0.0000E+00  0.8238E-01  0.8580E-01  0.2741E+00  0.2721E+00  0.3101E+04  0.3097E+04  0.5382E+01  0.1822E+01  0.0000E+00  0.0000E+00  0.0000E+00  0.0000E+00  0.0000E+00  0.0000E+00  0.0000E+00  0.0000E+00  0.0000E+00  0.0000E+00  0.0000E+00  0.0000E+00  0.0000E+00  0.0000E+00  0.0000E+00  0.0000E+00  0.0000E+00  0.7737E+02  0.1676E+02  0.8621E-01  0.2412E+02
REACH    1        0     2  0.2442E+00  0.1097E-01  0.1096E-01  0.5916E-05  0.0000E+00  0.4805E-08  0.4805E-08  0.5075E-05  0.2442E-07  0.0000E+00  0.7325E-07  0.0000E+00  0.8718E-01  0.8713E-01  0.0000E+00  0.8118E-04  0.0000E+00  0.0000E+00  0.4390E-05  0.1251E-04  0.6511E-09  0.0000E+00  0.0000E+00  0.0000E+00  0.7863E+01  0.7654E+01  0.0000E+00  0.0000E+00  0.0000E+00  0.0000E+00  0.0000E+00  0.0000E+00  0.0000E+00  0.0000E+00  0.0000E+00  0.0000E+00  0.0000E+00  0.0000E+00  0.0000E+00  0.0000E+00  0.0000E+00  0.0000E+00  0.0000E+00  0.8721E-01  0.1251E-04  0.9202E-01  0.2476E+02
REACH    2        0     2  0.1348E+00  0.5927E-02  0.5926E-02  0.5104E-06  0.0000E+00  0.7874E-08  0.7874E-08  0.1538E-04  0.1348E-07  0.0000E+00  0.4044E-07  0.0000E+00  0.5021E-01  0.5021E-01  0.0000E+00  0.6221E-05  0.0000E+00  0.0000E+00  0.2708E-06  0.0000E+00  0.3543E-12  0.0000E+00  0.0000E+00  0.0000E+00  0.4250E+01  0.4139E+01  0.0000E+00  0.0000E+00  0.0000E+00  0.0000E+00  0.0000E+00  0.0000E+00  0.0000E+00  0.0000E+00  0.0000E+00  0.0000E+00  0.0000E+00  0.0000E+00  0.0000E+00  0.0000E+00  0.0000E+00  0.0000E+00  0.0000E+00  0.5022E-01  0.0000E+00  0.9806E-01  0.2476E+02
REACH    3        0     2  0.1273E+00  0.5745E-02  0.5743E-02  0.1751E-05  0.0000E+00  0.2000E-08  0.2000E-08  0.4030E-05  0.1273E-07  0.0000E+00  0.3820E-07  0.0000E+00  0.4528E-01  0.4527E-01  0.0000E+00  0.2246E-04  0.0000E+00  0.0000E+00  0.1275E-07  0.0000E+00  0.6885E-22  0.0000E+00  0.0000E+00  0.0000E+00  0.4120E+01  0.4011E+01  0.0000E+00  0.0000E+00  0.0000E+00  0.0000E+00  0.0000E+00  0.0000E+00  0.0000E+00  0.0000E+00  0.0000E+00  0.0000E+00  0.0000E+00  0.0000E+00  0.0000E+00  0.0000E+00  0.0000E+00  0.0000E+00  0.0000E+00  0.4529E-01  0.0000E+00  0.9122E-01  0.2476E+02
REACH    4        0     2  0.1895E+00  0.7645E-02  0.7641E-02  0.4479E-05  0.0000E+00  0.5000E-08  0.5000E-08  0.7574E-05  0.3904E-06  0.0000E+00  0.1447E-06  0.0000E+00  0.9854E-01  0.9848E-01  0.0000E+00  0.6007E-04  0.0000E+00  0.0000E+00  0.2186E-07  0.0000E+00  0.6380E-15  0.0000E+00  0.0000E+00  0.0000E+00  0.5482E+01  0.5336E+01  0.0000E+00  0.0000E+00  0.0000E+00  0.0000E+00  0.0000E+00  0.0000E+00  0.0000E+00  0.0000E+00  0.0000E+00  0.0000E+00  0.0000E+00  0.0000E+00  0.0000E+00  0.0000E+00  0.0000E+00  0.0000E+00  0.0000E+00  0.9854E-01  0.0000E+00  0.1492E+00  0.2476E+02
REACH    5        0     2  0.2556E+00  0.1071E-01  0.1070E-01  0.5178E-05  0.0000E+00  0.6353E-08  0.6353E-08  0.6871E-05  0.3078E-03  0.3074E-03  0.6632E-04  0.6621E-04  0.1089E+00  0.1089E+00  0.0000E+00  0.7156E-04  0.0000E+00  0.0000E+00  0.6077E-05  0.1328E-04  0.2307E-07  0.0000E+00  0.0000E+00  0.0000E+00  0.7677E+01  0.7473E+01  0.0000E+00  0.0000E+00  0.0000E+00  0.0000E+00  0.0000E+00  0.0000E+00  0.0000E+00  0.0000E+00  0.0000E+00  0.0000E+00  0.0000E+00  0.0000E+00  0.0000E+00  0.0000E+00  0.0000E+00  0.0000E+00  0.0000E+00  0.1092E+00  0.7949E-04  0.1178E+00  0.2476E+02
REACH    6        0     2  0.5361E+00  0.2359E-01  0.2358E-01  0.9439E-05  0.0000E+00  0.1527E-07  0.2951E+00  0.1448E+03  0.3884E-03  0.3879E-03  0.8438E-04  0.8424E-04  0.2116E+00  0.2115E+00  0.9401E-04  0.2264E-03  0.0000E+00  0.0000E+00  0.1427E-04  0.2760E-04  0.2930E-08  0.0000E+00  0.0000E+00  0.0000E+00  0.1661E+02  0.1647E+02  0.0000E+00  0.0000E+00  0.0000E+00  0.0000E+00  0.0000E+00  0.0000E+00  0.0000E+00  0.0000E+00  0.0000E+00  0.0000E+00  0.0000E+00  0.0000E+00  0.0000E+00  0.0000E+00  0.0000E+00  0.0000E+00  0.0000E+00  0.2121E+00  0.1118E-03  0.1038E+00  0.2476E+02
REACH    7        0     2  0.8570E+00  0.3696E-01  0.3695E-01  0.7144E-05  0.0000E+00  0.2951E+00  0.5259E+00  0.1647E+03  0.3904E-03  0.3902E-03  0.8490E-04  0.8483E-04  0.3691E+00  0.3690E+00  0.2864E-03  0.3892E-03  0.0000E+00  0.0000E+00  0.2762E-04  0.3796E-04  0.1437E-16  0.0000E+00  0.0000E+00  0.0000E+00  0.2592E+02  0.2581E+02  0.0000E+00  0.0000E+00  0.0000E+00  0.0000E+00  0.0000E+00  0.0000E+00  0.0000E+00  0.0000E+00  0.0000E+00  0.0000E+00  0.0000E+00  0.0000E+00  0.0000E+00  0.0000E+00  0.0000E+00  0.0000E+00  0.0000E+00  0.3698E+00  0.1228E-03  0.1156E+00  0.2476E+02
REACH    8        0     2  0.1082E+01  0.4722E-01  0.4721E-01  0.1202E-04  0.0000E+00  0.5259E+00  0.5374E+00  0.1318E+03  0.3939E-03  0.3935E-03  0.8566E-04  0.8554E-04  0.4551E+00  0.4550E+00  0.3954E-03  0.5666E-03  0.0000E+00  0.0000E+00  0.3905E-04  0.5630E-04  0.3701E-11  0.0000E+00  0.0000E+00  0.0000E+00  0.3306E+02  0.3297E+02  0.0000E+00  0.0000E+00  0.0000E+00  0.0000E+00  0.0000E+00  0.0000E+00  0.0000E+00  0.0000E+00  0.0000E+00  0.0000E+00  0.0000E+00  0.0000E+00  0.0000E+00  0.0000E+00  0.0000E+00  0.0000E+00  0.0000E+00  0.4560E+00  0.1418E-03  0.1116E+00  0.2476E+02
REACH    9        0     2  0.1363E+01  0.5988E-01  0.5987E-01  0.5386E-05  0.0000E+00  0.5374E+00  0.7403E+00  0.1431E+03  0.3938E-03  0.3937E-03  0.8563E-04  0.8559E-04  0.5588E+00  0.5588E+00  0.6477E-03  0.7252E-03  0.0000E+00  0.0000E+00  0.7197E-04  0.7978E-04  0.4024E-08  0.0000E+00  0.0000E+00  0.0000E+00  0.4185E+02  0.4181E+02  0.0000E+00  0.0000E+00  0.0000E+00  0.0000E+00  0.0000E+00  0.0000E+00  0.0000E+00  0.0000E+00  0.0000E+00  0.0000E+00  0.0000E+00  0.0000E+00  0.0000E+00  0.0000E+00  0.0000E+00  0.0000E+00  0.0000E+00  0.5599E+00  0.1654E-03  0.1080E+00  0.2476E+02
REACH    1        0     3  0.2442E+00  0.2322E-01  0.2322E-01  0.8851E-05  0.0000E+00  0.1385E+01  0.1385E+01  0.6903E+03  0.2359E+01  0.2356E+01  0.5214E+00  0.5205E+00  0.2549E+00  0.2548E+00  0.0000E+00  0.1746E-02  0.0000E+00  0.0000E+00  0.9099E-03  0.1527E-02  0.1138E-02  0.1049E-02  0.3318E+02  0.3295E+02  0.1551E+02  0.6179E+00  0.0000E+00  0.0000E+00  0.0000E+00  0.0000E+00  0.0000E+00  0.0000E+00  0.0000E+00  0.0000E+00  0.0000E+00  0.0000E+00  0.0000E+00  0.0000E+00  0.0000E+00  0.0000E+00  0.0000E+00  0.0000E+00  0.0000E+00  0.2612E+01  0.5220E+00  0.1270E+00  0.2529E+02
REACH    2        0     3  0.1348E+00  0.1285E-01  0.1285E-01  0.7071E-06  0.0000E+00  0.7126E+00  0.7126E+00  0.6421E+03  0.1260E+01  0.1260E+01  0.2778E+00  0.2778E+00  0.1406E+00  0.1406E+00  0.0000E+00  0.1247E-03  0.0000E+00  0.0000E+00  0.8673E-03  0.9112E-03  0.3136E-03  0.3104E-03  0.1441E+02  0.1439E+02  0.8561E+01  0.6212E+00  0.0000E+00  0.0000E+00  0.0000E+00  0.0000E+00  0.0000E+00  0.0000E+00  0.0000E+00  0.0000E+00  0.0000E+00  0.0000E+00  0.0000E+00  0.0000E+00  0.0000E+00  0.0000E+00  0.0000E+00  0.0000E+00  0.0000E+00  0.1400E+01  0.2787E+00  0.1266E+00  0.2529E+02
REACH    3        0     3  0.1273E+00  0.1213E-01  0.1212E-01  0.2491E-05  0.0000E+00  0.5237E+00  0.5237E+00  0.4999E+03  0.1045E+01  0.1044E+01  0.2301E+00  0.2300E+00  0.1349E+00  0.1349E+00  0.0000E+00  0.3093E-03  0.0000E+00  0.0000E+00  0.4101E-03  0.5166E-03  0.2531E-03  0.2430E-03  0.1116E+02  0.1113E+02  0.8130E+01  0.9100E+00  0.0000E+00  0.0000E+00  0.0000E+00  0.0000E+00  0.0000E+00  0.0000E+00  0.0000E+00  0.0000E+00  0.0000E+00  0.0000E+00  0.0000E+00  0.0000E+00  0.0000E+00  0.0000E+00  0.0000E+00  0.0000E+00  0.0000E+00  0.1180E+01  0.2305E+00  0.1288E+00  0.2529E+02
REACH    4        0     3  0.1895E+00  0.1872E-01  0.1871E-01  0.6171E-05  0.0000E+00  0.8731E+00  0.8731E+00  0.5401E+03  0.1327E+01  0.1325E+01  0.2945E+00  0.2942E+00  0.2783E+00  0.2782E+00  0.0000E+00  0.6764E-03  0.0000E+00  0.0000E+00  0.5128E-02  0.5359E-02  0.9407E-03  0.8776E-03  0.2127E+02  0.2117E+02  0.1197E+02  0.8769E+00  0.0000E+00  0.0000E+00  0.0000E+00  0.0000E+00  0.0000E+00  0.0000E+00  0.0000E+00  0.0000E+00  0.0000E+00  0.0000E+00  0.0000E+00  0.0000E+00  0.0000E+00  0.0000E+00  0.0000E+00  0.0000E+00  0.0000E+00  0.1604E+01  0.2996E+00  0.1721E+00  0.2529E+02
REACH    5        0     3  0.2556E+00  0.2419E-01  0.2418E-01  0.6983E-05  0.0000E+00  0.1038E+01  0.1038E+01  0.4968E+03  0.2295E+01  0.2293E+01  0.5052E+00  0.5046E+00  0.2882E+00  0.2881E+00  0.0000E+00  0.1033E-02  0.0000E+00  0.0000E+00  0.2171E-02  0.2528E-02  0.1493E-02  0.1402E-02  0.3193E+02  0.3179E+02  0.1584E+02  0.7855E+00  0.0000E+00  0.0000E+00  0.0000E+00  0.0000E+00  0.0000E+00  0.0000E+00  0.0000E+00  0.0000E+00  0.0000E+00  0.0000E+00  0.0000E+00  0.0000E+00  0.0000E+00  0.0000E+00  0.0000E+00  0.0000E+00  0.0000E+00  0.2582E+01  0.5072E+00  0.1379E+00  0.2529E+02
REACH    6        0     3  0.5361E+00  0.5099E-01  0.5098E-01  0.1294E-04  0.0000E+00  0.2101E+01  0.7705E+00  0.1749E+03  0.4404E+01  0.4399E+01  0.9695E+00  0.9682E+00  0.6008E+00  0.6007E+00  0.1343E-02  0.4027E-02  0.0000E+00  0.0000E+00  0.3542E-02  0.4549E-02  0.1912E-02  0.1806E-02  0.5439E+02  0.5406E+02  0.1163E+02  0.2770E+01  0.0000E+00  0.0000E+00  0.0000E+00  0.0000E+00  0.0000E+00  0.0000E+00  0.0000E+00  0.0000E+00  0.0000E+00  0.0000E+00  0.0000E+00  0.0000E+00  0.0000E+00  0.0000E+00  0.0000E+00  0.0000E+00  0.0000E+00  0.5004E+01  0.9727E+00  0.1364E+00  0.2529E+02
REACH    7        0     3  0.8570E+00  0.8218E-01  0.8218E-01  0.9500E-05  0.0000E+00  0.2346E+01  0.1481E+01  0.2086E+03  0.6970E+01  0.6967E+01  0.1542E+01  0.1541E+01  0.1035E+01  0.1035E+01  0.4703E-02  0.6842E-02  0.0000E+00  0.0000E+00  0.1172E-01  0.1248E-01  0.4508E-02  0.4390E-02  0.1019E+03  0.1016E+03  0.1175E+02  0.3118E+01  0.0000E+00  0.0000E+00  0.0000E+00  0.0000E+00  0.0000E+00  0.0000E+00  0.0000E+00  0.0000E+00  0.0000E+00  0.0000E+00  0.0000E+00  0.0000E+00  0.0000E+00  0.0000E+00  0.0000E+00  0.0000E+00  0.0000E+00  0.8009E+01  0.1554E+01  0.1458E+00  0.2529E+02
REACH    8        0     3  0.1082E+01  0.1036E+00  0.1036E+00  0.1514E-04  0.0000E+00  0.2496E+01  0.2026E+01  0.2263E+03  0.8751E+01  0.8746E+01  0.1936E+01  0.1934E+01  0.1281E+01  0.1281E+01  0.6966E-02  0.1041E-01  0.0000E+00  0.0000E+00  0.1385E-01  0.1507E-01  0.1530E-01  0.1479E-01  0.1703E+03  0.1696E+03  0.9390E+01  0.1955E+01  0.0000E+00  0.0000E+00  0.0000E+00  0.0000E+00  0.0000E+00  0.0000E+00  0.0000E+00  0.0000E+00  0.0000E+00  0.0000E+00  0.0000E+00  0.0000E+00  0.0000E+00  0.0000E+00  0.0000E+00  0.0000E+00  0.0000E+00  0.1004E+02  0.1949E+01  0.1431E+00  0.2529E+02
REACH    9        0     3  0.1363E+01  0.1304E+00  0.1304E+00  0.6981E-05  0.0000E+00  0.3476E+01  0.2255E+01  0.2002E+03  0.1127E+02  0.1127E+02  0.2492E+01  0.2491E+01  0.1579E+01  0.1579E+01  0.1216E-01  0.1409E-01  0.0000E+00  0.0000E+00  0.1724E-01  0.1793E-01  0.1603E-01  0.1583E-01  0.2046E+03  0.2043E+03  0.5001E+01  0.2750E+01  0.0000E+00  0.0000E+00  0.0000E+00  0.0000E+00  0.0000E+00  0.0000E+00  0.0000E+00  0.0000E+00  0.0000E+00  0.0000E+00  0.0000E+00  0.0000E+00  0.0000E+00  0.0000E+00  0.0000E+00  0.0000E+00  0.0000E+00  0.1286E+02  0.2509E+01  0.1401E+00  0.2529E+02
REACH    1        0     4  0.2442E+00  0.1295E-01  0.1294E-01  0.9729E-05  0.0000E+00  0.4805E-08  0.4805E-08  0.4299E-05  0.2295E-02  0.2291E-02  0.5192E-03  0.5180E-03  0.1042E+00  0.1042E+00  0.0000E+00  0.9367E-04  0.0000E+00  0.0000E+00  0.4626E-05  0.1387E-04  0.1047E-06  0.9099E-07  0.1010E-07  0.0000E+00  0.9151E+01  0.8895E+01  0.0000E+00  0.0000E+00  0.0000E+00  0.0000E+00  0.0000E+00  0.0000E+00  0.0000E+00  0.0000E+00  0.0000E+00  0.0000E+00  0.0000E+00  0.0000E+00  0.0000E+00  0.0000E+00  0.0000E+00  0.0000E+00  0.0000E+00  0.1065E+00  0.5318E-03  0.9317E-01  0.2555E+02
REACH    2        0     4  0.1348E+00  0.7094E-02  0.7093E-02  0.7508E-06  0.0000E+00  0.7874E-08  0.7874E-08  0.1285E-04  0.1348E-07  0.0000E+00  0.4044E-07  0.0000E+00  0.5804E-01  0.5804E-01  0.0000E+00  0.6580E-05  0.0000E+00  0.0000E+00  0.2730E-06  0.0000E+00  0.3315E-12  0.0000E+00  0.0000E+00  0.0000E+00  0.5014E+01  0.4876E+01  0.0000E+00  0.0000E+00  0.0000E+00  0.0000E+00  0.0000E+00  0.0000E+00  0.0000E+00  0.0000E+00  0.0000E+00  0.0000E+00  0.0000E+00  0.0000E+00  0.0000E+00  0.0000E+00  0.0000E+00  0.0000E+00  0.0000E+00  0.5804E-01  0.0000E+00  0.9470E-01  0.2555E+02
REACH    3        0     4  0.1273E+00  0.6779E-02  0.6776E-02  0.2576E-05  0.0000E+00  0.2000E-08  0.2000E-08  0.3416E-05  0.1273E-07  0.0000E+00  0.3820E-07  0.0000E+00  0.5493E-01  0.5491E-01  0.0000E+00  0.2375E-04  0.0000E+00  0.0000E+00  0.1275E-07  0.0000E+00  0.4833E-22  0.0000E+00  0.0000E+00  0.0000E+00  0.4791E+01  0.4659E+01  0.0000E+00  0.0000E+00  0.0000E+00  0.0000E+00  0.0000E+00  0.0000E+00  0.0000E+00  0.0000E+00  0.0000E+00  0.0000E+00  0.0000E+00  0.0000E+00  0.0000E+00  0.0000E+00  0.0000E+00  0.0000E+00  0.0000E+00  0.5494E-01  0.0000E+00  0.9379E-01  0.2555E+02
REACH    4        0     4  0.1895E+00  0.9745E-02  0.9739E-02  0.6602E-05  0.0000E+00  0.5000E-08  0.5000E-08  0.5942E-05  0.3043E-02  0.3039E-02  0.6773E-03  0.6761E-03  0.1184E+00  0.1183E+00  0.0000E+00  0.6521E-04  0.0000E+00  0.0000E+00  0.7347E-06  0.0000E+00  0.3948E-05  0.3478E-05  0.3799E-07  0.0000E+00  0.6888E+01  0.6695E+01  0.0000E+00  0.0000E+00  0.0000E+00  0.0000E+00  0.0000E+00  0.0000E+00  0.0000E+00  0.0000E+00  0.0000E+00  0.0000E+00  0.0000E+00  0.0000E+00  0.0000E+00  0.0000E+00  0.0000E+00  0.0000E+00  0.0000E+00  0.1214E+00  0.6761E-03  0.1406E+00  0.2555E+02
REACH    5        0     4  0.2556E+00  0.1298E-01  0.1298E-01  0.7621E-05  0.0000E+00  0.6353E-08  0.6353E-08  0.5667E-05  0.5657E-02  0.5650E-02  0.1259E-02  0.1257E-02  0.1183E+00  0.1182E+00  0.0000E+00  0.7828E-04  0.0000E+00  0.0000E+00  0.3563E-05  0.1068E-04  0.7290E-05  0.6516E-05  0.3917E-07  0.0000E+00  0.9176E+01  0.8920E+01  0.0000E+00  0.0000E+00  0.0000E+00  0.0000E+00  0.0000E+00  0.0000E+00  0.0000E+00  0.0000E+00  0.0000E+00  0.0000E+00  0.0000E+00  0.0000E+00  0.0000E+00  0.0000E+00  0.0000E+00  0.0000E+00  0.0000E+00  0.1239E+00  0.1268E-02  0.1054E+00  0.2555E+02
REACH    6        0     4  0.5361E+00  0.2807E-01  0.2806E-01  0.1388E-04  0.0000E+00  0.1527E-07  0.4178E+00  0.1723E+03  0.5657E-02  0.5650E-02  0.1259E-02  0.1256E-02  0.2465E+00  0.2464E+00  0.1020E-03  0.2453E-03  0.0000E+00  0.0000E+00  0.1088E-04  0.2619E-04  0.6516E-05  0.5916E-05  0.0000E+00  0.0000E+00  0.1946E+02  0.1929E+02  0.0000E+00  0.0000E+00  0.0000E+00  0.0000E+00  0.0000E+00  0.0000E+00  0.0000E+00  0.0000E+00  0.0000E+00  0.0000E+00  0.0000E+00  0.0000E+00  0.0000E+00  0.0000E+00  0.0000E+00  0.0000E+00  0.0000E+00  0.2523E+00  0.1283E-02  0.1016E+00  0.2555E+02
REACH    7        0     4  0.8570E+00  0.4465E-01  0.4464E-01  0.1050E-04  0.0000E+00  0.4178E+00  0.7675E+00  0.1990E+03  0.1260E-01  0.1259E-01  0.2802E-02  0.2800E-02  0.4332E+00  0.4331E+00  0.3105E-03  0.4229E-03  0.0000E+00  0.0000E+00  0.3024E-04  0.4257E-04  0.1738E-04  0.1660E-04  0.5980E-07  0.0000E+00  0.3083E+02  0.3069E+02  0.0000E+00  0.0000E+00  0.0000E+00  0.0000E+00  0.0000E+00  0.0000E+00  0.0000E+00  0.0000E+00  0.0000E+00  0.0000E+00  0.0000E+00  0.0000E+00  0.0000E+00  0.0000E+00  0.0000E+00  0.0000E+00  0.0000E+00  0.4461E+00  0.2843E-02  0.1123E+00  0.2555E+02
REACH    8        0     4  0.1082E+01  0.5662E-01  0.5661E-01  0.1766E-04  0.0000E+00  0.7675E+00  0.7727E+00  0.1580E+03  0.6277E-01  0.6272E-01  0.1388E-01  0.1386E-01  0.5368E+00  0.5366E+00  0.4295E-03  0.6444E-03  0.0000E+00  0.0000E+00  0.9429E-04  0.1250E-03  0.9090E-03  0.8545E-03  0.4256E-06  0.0000E+00  0.3902E+02  0.3891E+02  0.0000E+00  0.0000E+00  0.0000E+00  0.0000E+00  0.0000E+00  0.0000E+00  0.0000E+00  0.0000E+00  0.0000E+00  0.0000E+00  0.0000E+00  0.0000E+00  0.0000E+00  0.0000E+00  0.0000E+00  0.0000E+00  0.0000E+00  0.6000E+00  0.1399E-01  0.1097E+00  0.2555E+02
REACH    9        0     4  0.1363E+01  0.7154E-01  0.7153E-01  0.7909E-05  0.0000E+00  0.7727E+00  0.1057E+01  0.1710E+03  0.6501E-01  0.6499E-01  0.1438E-01  0.1437E-01  0.6603E+00  0.6602E+00  0.7380E-03  0.8325E-03  0.0000E+00  0.0000E+00  0.2618E-03  0.2747E-03  0.8555E-03  0.8371E-03  0.0000E+00  0.0000E+00  0.4922E+02  0.4917E+02  0.0000E+00  0.0000E+00  0.0000E+00  0.0000E+00  0.0000E+00  0.0000E+00  0.0000E+00  0.0000E+00  0.0000E+00  0.0000E+00  0.0000E+00  0.0000E+00  0.0000E+00  0.0000E+00  0.0000E+00  0.0000E+00  0.0000E+00  0.7260E+00  0.1465E-01  0.1068E+00  0.2555E+02
REACH    1        0     5  0.2442E+00  0.4379E-01  0.4378E-01  0.1179E-04  0.0000E+00  0.1664E+02  0.1664E+02  0.4401E+04  0.2472E+02  0.2470E+02  0.5455E+01  0.5448E+01  0.5340E+00  0.5338E+00  0.0000E+00  0.1212E-01  0.0000E+00  0.0000E+00  0.5608E-02  0.1003E-01  0.6698E-01  0.6404E-01  0.9404E+03  0.9357E+03  0.2488E+02  0.3520E+00  0.0000E+00  0.0000E+00  0.0000E+00  0.0000E+00  0.0000E+00  0.0000E+00  0.0000E+00  0.0000E+00  0.0000E+00  0.0000E+00  0.0000E+00  0.0000E+00  0.0000E+00  0.0000E+00  0.0000E+00  0.0000E+00  0.0000E+00  0.2525E+02  0.5458E+01  0.1411E+00  0.2506E+02
REACH    2        0     5  0.1348E+00  0.2444E-01  0.2444E-01  0.9688E-06  0.0000E+00  0.8791E+01  0.8791E+01  0.4163E+04  0.1342E+02  0.1342E+02  0.2959E+01  0.2958E+01  0.2916E+00  0.2915E+00  0.0000E+00  0.8915E-03  0.0000E+00  0.0000E+00  0.4472E-02  0.4797E-02  0.3429E-01  0.3409E-01  0.4914E+03  0.4911E+03  0.1364E+02  0.1965E+00  0.0000E+00  0.0000E+00  0.0000E+00  0.0000E+00  0.0000E+00  0.0000E+00  0.0000E+00  0.0000E+00  0.0000E+00  0.0000E+00  0.0000E+00  0.0000E+00  0.0000E+00  0.0000E+00  0.0000E+00  0.0000E+00  0.0000E+00  0.1371E+02  0.2963E+01  0.1381E+00  0.2506E+02
REACH    3        0     5  0.1273E+00  0.2279E-01  0.2278E-01  0.3485E-05  0.0000E+00  0.6508E+01  0.6508E+01  0.3306E+04  0.1131E+02  0.1130E+02  0.2489E+01  0.2488E+01  0.2739E+00  0.2739E+00  0.0000E+00  0.2390E-02  0.0000E+00  0.0000E+00  0.2822E-02  0.3691E-02  0.2838E-01  0.2772E-01  0.3820E+03  0.3812E+03  0.1301E+02  0.1832E+00  0.0000E+00  0.0000E+00  0.0000E+00  0.0000E+00  0.0000E+00  0.0000E+00  0.0000E+00  0.0000E+00  0.0000E+00  0.0000E+00  0.0000E+00  0.0000E+00  0.0000E+00  0.0000E+00  0.0000E+00  0.0000E+00  0.0000E+00  0.1158E+02  0.2491E+01  0.1391E+00  0.2506E+02
REACH    4        0     5  0.1895E+00  0.3612E-01  0.3611E-01  0.8436E-05  0.0000E+00  0.1029E+02  0.1029E+02  0.3299E+04  0.1344E+02  0.1343E+02  0.2977E+01  0.2974E+01  0.4694E+00  0.4693E+00  0.0000E+00  0.4605E-02  0.0000E+00  0.0000E+00  0.1973E-01  0.2141E-01  0.3908E-01  0.3762E-01  0.5589E+03  0.5569E+03  0.1775E+02  0.2904E+00  0.0000E+00  0.0000E+00  0.0000E+00  0.0000E+00  0.0000E+00  0.0000E+00  0.0000E+00  0.0000E+00  0.0000E+00  0.0000E+00  0.0000E+00  0.0000E+00  0.0000E+00  0.0000E+00  0.0000E+00  0.0000E+00  0.0000E+00  0.1390E+02  0.2995E+01  0.1504E+00  0.2506E+02
REACH    5        0     5  0.2556E+00  0.4604E-01  0.4603E-01  0.9371E-05  0.0000E+00  0.1189E+02  0.1189E+02  0.2990E+04  0.2308E+02  0.2306E+02  0.5077E+01  0.5073E+01  0.4792E+00  0.4791E+00  0.0000E+00  0.7141E-02  0.0000E+00  0.0000E+00  0.1063E-01  0.1322E-01  0.7019E-01  0.6780E-01  0.8115E+03  0.8089E+03  0.2433E+02  0.3701E+00  0.0000E+00  0.0000E+00  0.0000E+00  0.0000E+00  0.0000E+00  0.0000E+00  0.0000E+00  0.0000E+00  0.0000E+00  0.0000E+00  0.0000E+00  0.0000E+00  0.0000E+00  0.0000E+00  0.0000E+00  0.0000E+00  0.0000E+00  0.2355E+02  0.5087E+01  0.1205E+00  0.2506E+02
REACH    6        0     5  0.5361E+00  0.9576E-01  0.9575E-01  0.1665E-04  0.0000E+00  0.2514E+02  0.2190E+01  0.2647E+03  0.4615E+02  0.4612E+02  0.1015E+02  0.1015E+02  0.1085E+01  0.1085E+01  0.9532E-02  0.2822E-01  0.0000E+00  0.0000E+00  0.2025E-01  0.2706E-01  0.1246E+00  0.1208E+00  0.1583E+04  0.1576E+04  0.1632E+02  0.7699E+00  0.0000E+00  0.0000E+00  0.0000E+00  0.0000E+00  0.0000E+00  0.0000E+00  0.0000E+00  0.0000E+00  0.0000E+00  0.0000E+00  0.0000E+00  0.0000E+00  0.0000E+00  0.0000E+00  0.0000E+00  0.0000E+00  0.0000E+00  0.4724E+02  0.1017E+02  0.1312E+00  0.2506E+02
REACH    7        0     5  0.8570E+00  0.1556E+00  0.1556E+00  0.1207E-04  0.0000E+00  0.2007E+02  0.4314E+01  0.3209E+03  0.7117E+02  0.7115E+02  0.1571E+02  0.1570E+02  0.1864E+01  0.1864E+01  0.3283E-01  0.4626E-01  0.0000E+00  0.0000E+00  0.5586E-01  0.6076E-01  0.2028E+00  0.2000E+00  0.2622E+04  0.2617E+04  0.1378E+02  0.1251E+01  0.0000E+00  0.0000E+00  0.0000E+00  0.0000E+00  0.0000E+00  0.0000E+00  0.0000E+00  0.0000E+00  0.0000E+00  0.0000E+00  0.0000E+00  0.0000E+00  0.0000E+00  0.0000E+00  0.0000E+00  0.0000E+00  0.0000E+00  0.7306E+02  0.1576E+02  0.1387E+00  0.2506E+02
REACH    8        0     5  0.1082E+01  0.1955E+00  0.1954E+00  0.2057E-04  0.0000E+00  0.1498E+02  0.4227E+01  0.2503E+03  0.8816E+02  0.8812E+02  0.1945E+02  0.1944E+02  0.2385E+01  0.2385E+01  0.4715E-01  0.7680E-01  0.0000E+00  0.0000E+00  0.6746E-01  0.7830E-01  0.2750E+00  0.2697E+00  0.3342E+04  0.3331E+04  0.1080E+02  0.1572E+01  0.0000E+00  0.0000E+00  0.0000E+00  0.0000E+00  0.0000E+00  0.0000E+00  0.0000E+00  0.0000E+00  0.0000E+00  0.0000E+00  0.0000E+00  0.0000E+00  0.0000E+00  0.0000E+00  0.0000E+00  0.0000E+00  0.0000E+00  0.9058E+02  0.1952E+02  0.1412E+00  0.2506E+02
REACH    9        0     5  0.1363E+01  0.2456E+00  0.2456E+00  0.9040E-05  0.0000E+00  0.2166E+02  0.5787E+01  0.2727E+03  0.1146E+03  0.1146E+03  0.2528E+02  0.2528E+02  0.2996E+01  0.2995E+01  0.8893E-01  0.1027E+00  0.0000E+00  0.0000E+00  0.9016E-01  0.9518E-01  0.3399E+00  0.3376E+00  0.4319E+04  0.4314E+04  0.5807E+01  0.1975E+01  0.0000E+00  0.0000E+00  0.0000E+00  0.0000E+00  0.0000E+00  0.0000E+00  0.0000E+00  0.0000E+00  0.0000E+00  0.0000E+00  0.0000E+00  0.0000E+00  0.0000E+00  0.0000E+00  0.0000E+00  0.0000E+00  0.0000E+00  0.1177E+03  0.2537E+02  0.1411E+00  0.2506E+02
REACH    1        0     6  0.2442E+00  0.1252E-01  0.1251E-01  0.9788E-05  0.0000E+00  0.4805E-08  0.4805E-08  0.4446E-05  0.2442E-07  0.0000E+00  0.7325E-07  0.0000E+00  0.1818E+00  0.1816E+00  0.0000E+00  0.9211E-04  0.0000E+00  0.0000E+00  0.3729E-05  0.1118E-04  0.2829E-09  0.0000E+00  0.0000E+00  0.0000E+00  0.8836E+01  0.8587E+01  0.0000E+00  0.0000E+00  0.0000E+00  0.0000E+00  0.0000E+00  0.0000E+00  0.0000E+00  0.0000E+00  0.0000E+00  0.0000E+00  0.0000E+00  0.0000E+00  0.0000E+00  0.0000E+00  0.0000E+00  0.0000E+00  0.0000E+00  0.1817E+00  0.1118E-04  0.1680E+00  0.2562E+02
REACH    2        0     6  0.1348E+00  0.6756E-02  0.6755E-02  0.7553E-06  0.0000E+00  0.7874E-08  0.7874E-08  0.1349E-04  0.1348E-07  0.0000E+00  0.4044E-07  0.0000E+00  0.9886E-01  0.9885E-01  0.0000E+00  0.6615E-05  0.0000E+00  0.0000E+00  0.2002E-06  0.0000E+00  0.1003E-12  0.0000E+00  0.0000E+00  0.0000E+00  0.4768E+01  0.4637E+01  0.0000E+00  0.0000E+00  0.0000E+00  0.0000E+00  0.0000E+00  0.0000E+00  0.0000E+00  0.0000E+00  0.0000E+00  0.0000E+00  0.0000E+00  0.0000E+00  0.0000E+00  0.0000E+00  0.0000E+00  0.0000E+00  0.0000E+00  0.9885E-01  0.0000E+00  0.1694E+00  0.2562E+02
REACH    3        0     6  0.1273E+00  0.6556E-02  0.6553E-02  0.2592E-05  0.0000E+00  0.2000E-08  0.2000E-08  0.3532E-05  0.1273E-07  0.0000E+00  0.3820E-07  0.0000E+00  0.9338E-01  0.9335E-01  0.0000E+00  0.2388E-04  0.0000E+00  0.0000E+00  0.1275E-07  0.0000E+00  0.5316E-22  0.0000E+00  0.0000E+00  0.0000E+00  0.4627E+01  0.4498E+01  0.0000E+00  0.0000E+00  0.0000E+00  0.0000E+00  0.0000E+00  0.0000E+00  0.0000E+00  0.0000E+00  0.0000E+00  0.0000E+00  0.0000E+00  0.0000E+00  0.0000E+00  0.0000E+00  0.0000E+00  0.0000E+00  0.0000E+00  0.9337E-01  0.0000E+00  0.1649E+00  0.2562E+02
REACH    4        0     6  0.1895E+00  0.8676E-02  0.8669E-02  0.6644E-05  0.0000E+00  0.5000E-08  0.5000E-08  0.6675E-05  0.5632E-06  0.0000E+00  0.1856E-06  0.0000E+00  0.1529E+00  0.1528E+00  0.0000E+00  0.6387E-04  0.0000E+00  0.0000E+00  0.2153E-07  0.0000E+00  0.6671E-15  0.0000E+00  0.0000E+00  0.0000E+00  0.6124E+01  0.5951E+01  0.0000E+00  0.0000E+00  0.0000E+00  0.0000E+00  0.0000E+00  0.0000E+00  0.0000E+00  0.0000E+00  0.0000E+00  0.0000E+00  0.0000E+00  0.0000E+00  0.0000E+00  0.0000E+00  0.0000E+00  0.0000E+00  0.0000E+00  0.1529E+00  0.0000E+00  0.2040E+00  0.2562E+02
REACH    5        0     6  0.2556E+00  0.1196E-01  0.1196E-01  0.7668E-05  0.0000E+00  0.6353E-08  0.6353E-08  0.6150E-05  0.4216E-03  0.4211E-03  0.9080E-04  0.9065E-04  0.1609E+00  0.1608E+00  0.0000E+00  0.7613E-04  0.0000E+00  0.0000E+00  0.5762E-05  0.1343E-04  0.2340E-07  0.0000E+00  0.0000E+00  0.0000E+00  0.8444E+01  0.8207E+01  0.0000E+00  0.0000E+00  0.0000E+00  0.0000E+00  0.0000E+00  0.0000E+00  0.0000E+00  0.0000E+00  0.0000E+00  0.0000E+00  0.0000E+00  0.0000E+00  0.0000E+00  0.0000E+00  0.0000E+00  0.0000E+00  0.0000E+00  0.1613E+00  0.1041E-03  0.1556E+00  0.2562E+02
REACH    6        0     6  0.5361E+00  0.2663E-01  0.2662E-01  0.1396E-04  0.0000E+00  0.1527E-07  0.3760E+00  0.1635E+03  0.5339E-03  0.5332E-03  0.1160E-03  0.1158E-03  0.3680E+00  0.3678E+00  0.1000E-03  0.2408E-03  0.0000E+00  0.0000E+00  0.1423E-04  0.2842E-04  0.3011E-08  0.0000E+00  0.0000E+00  0.0000E+00  0.1844E+02  0.1827E+02  0.0000E+00  0.0000E+00  0.0000E+00  0.0000E+00  0.0000E+00  0.0000E+00  0.0000E+00  0.0000E+00  0.0000E+00  0.0000E+00  0.0000E+00  0.0000E+00  0.0000E+00  0.0000E+00  0.0000E+00  0.0000E+00  0.0000E+00  0.3686E+00  0.1442E-03  0.1599E+00  0.2562E+02
REACH    7        0     6  0.8570E+00  0.4182E-01  0.4181E-01  0.1057E-04  0.0000E+00  0.3760E+00  0.6732E+00  0.1864E+03  0.5367E-03  0.5363E-03  0.1167E-03  0.1166E-03  0.6280E+00  0.6278E+00  0.3047E-03  0.4139E-03  0.0000E+00  0.0000E+00  0.2844E-04  0.3945E-04  0.1372E-16  0.0000E+00  0.0000E+00  0.0000E+00  0.2883E+02  0.2870E+02  0.0000E+00  0.0000E+00  0.0000E+00  0.0000E+00  0.0000E+00  0.0000E+00  0.0000E+00  0.0000E+00  0.0000E+00  0.0000E+00  0.0000E+00  0.0000E+00  0.0000E+00  0.0000E+00  0.0000E+00  0.0000E+00  0.0000E+00  0.6288E+00  0.1560E-03  0.1738E+00  0.2562E+02
REACH    8        0     6  0.1082E+01  0.5356E-01  0.5354E-01  0.1776E-04  0.0000E+00  0.6732E+00  0.6914E+00  0.1494E+03  0.5408E-03  0.5402E-03  0.1176E-03  0.1174E-03  0.8062E+00  0.8060E+00  0.4206E-03  0.6027E-03  0.0000E+00  0.0000E+00  0.4031E-04  0.5868E-04  0.1800E-11  0.0000E+00  0.0000E+00  0.0000E+00  0.3686E+02  0.3675E+02  0.0000E+00  0.0000E+00  0.0000E+00  0.0000E+00  0.0000E+00  0.0000E+00  0.0000E+00  0.0000E+00  0.0000E+00  0.0000E+00  0.0000E+00  0.0000E+00  0.0000E+00  0.0000E+00  0.0000E+00  0.0000E+00  0.0000E+00  0.8071E+00  0.1761E-03  0.1742E+00  0.2562E+02
REACH    9        0     6  0.1363E+01  0.6796E-01  0.6795E-01  0.7954E-05  0.0000E+00  0.6914E+00  0.9535E+00  0.1624E+03  0.5408E-03  0.5406E-03  0.1176E-03  0.1175E-03  0.1014E+01  0.1014E+01  0.6948E-03  0.7772E-03  0.0000E+00  0.0000E+00  0.7297E-04  0.8129E-04  0.4841E-08  0.0000E+00  0.0000E+00  0.0000E+00  0.4668E+02  0.4664E+02  0.0000E+00  0.0000E+00  0.0000E+00  0.0000E+00  0.0000E+00  0.0000E+00  0.0000E+00  0.0000E+00  0.0000E+00  0.0000E+00  0.0000E+00  0.0000E+00  0.0000E+00  0.0000E+00  0.0000E+00  0.0000E+00  0.0000E+00  0.1015E+01  0.1988E-03  0.1728E+00  0.2562E+02
REACH    1        0     7  0.2442E+00  0.4610E-02  0.4601E-02  0.8728E-05  0.0000E+00  0.4805E-08  0.4805E-08  0.1209E-04  0.2442E-07  0.0000E+00  0.7325E-07  0.0000E+00  0.6292E-01  0.6280E-01  0.0000E+00  0.8194E-04  0.0000E+00  0.0000E+00  0.7455E-06  0.2232E-05  0.2587E-11  0.0000E+00  0.0000E+00  0.0000E+00  0.3296E+01  0.3203E+01  0.0000E+00  0.0000E+00  0.0000E+00  0.0000E+00  0.0000E+00  0.0000E+00  0.0000E+00  0.0000E+00  0.0000E+00  0.0000E+00  0.0000E+00  0.0000E+00  0.0000E+00  0.0000E+00  0.0000E+00  0.0000E+00  0.0000E+00  0.6289E-01  0.2232E-05  0.1580E+00  0.2491E+02
REACH    2        0     7  0.1348E+00  0.2443E-02  0.2442E-02  0.6440E-06  0.0000E+00  0.7874E-08  0.7874E-08  0.3732E-04  0.1348E-07  0.0000E+00  0.4044E-07  0.0000E+00  0.3428E-01  0.3428E-01  0.0000E+00  0.5704E-05  0.0000E+00  0.0000E+00  0.3697E-07  0.0000E+00  0.2053E-15  0.0000E+00  0.0000E+00  0.0000E+00  0.1747E+01  0.1700E+01  0.0000E+00  0.0000E+00  0.0000E+00  0.0000E+00  0.0000E+00  0.0000E+00  0.0000E+00  0.0000E+00  0.0000E+00  0.0000E+00  0.0000E+00  0.0000E+00  0.0000E+00  0.0000E+00  0.0000E+00  0.0000E+00  0.0000E+00  0.3428E-01  0.0000E+00  0.1624E+00  0.2491E+02
REACH    3        0     7  0.1273E+00  0.2423E-02  0.2421E-02  0.2129E-05  0.0000E+00  0.2000E-08  0.2000E-08  0.9562E-05  0.1273E-07  0.0000E+00  0.3820E-07  0.0000E+00  0.3235E-01  0.3232E-01  0.0000E+00  0.2026E-04  0.0000E+00  0.0000E+00  0.1275E-07  0.0000E+00  0.4200E-21  0.0000E+00  0.0000E+00  0.0000E+00  0.1733E+01  0.1685E+01  0.0000E+00  0.0000E+00  0.0000E+00  0.0000E+00  0.0000E+00  0.0000E+00  0.0000E+00  0.0000E+00  0.0000E+00  0.0000E+00  0.0000E+00  0.0000E+00  0.0000E+00  0.0000E+00  0.0000E+00  0.0000E+00  0.0000E+00  0.3234E-01  0.0000E+00  0.1545E+00  0.2491E+02
REACH    4        0     7  0.1895E+00  0.3042E-02  0.3036E-02  0.5702E-05  0.0000E+00  0.5000E-08  0.5000E-08  0.1906E-04  0.1899E-07  0.0000E+00  0.5685E-07  0.0000E+00  0.5266E-01  0.5256E-01  0.0000E+00  0.5575E-04  0.0000E+00  0.0000E+00  0.1897E-07  0.0000E+00  0.8393E-21  0.0000E+00  0.0000E+00  0.0000E+00  0.2175E+01  0.2114E+01  0.0000E+00  0.0000E+00  0.0000E+00  0.0000E+00  0.0000E+00  0.0000E+00  0.0000E+00  0.0000E+00  0.0000E+00  0.0000E+00  0.0000E+00  0.0000E+00  0.0000E+00  0.0000E+00  0.0000E+00  0.0000E+00  0.0000E+00  0.5262E-01  0.0000E+00  0.2004E+00  0.2491E+02
REACH    5        0     7  0.2556E+00  0.4200E-02  0.4194E-02  0.6769E-05  0.0000E+00  0.6353E-08  0.6353E-08  0.1753E-04  0.1878E-04  0.1873E-04  0.4112E-05  0.4100E-05  0.5541E-01  0.5532E-01  0.0000E+00  0.6741E-04  0.0000E+00  0.0000E+00  0.2247E-05  0.6731E-05  0.2291E-09  0.0000E+00  0.0000E+00  0.0000E+00  0.3004E+01  0.2920E+01  0.0000E+00  0.0000E+00  0.0000E+00  0.0000E+00  0.0000E+00  0.0000E+00  0.0000E+00  0.0000E+00  0.0000E+00  0.0000E+00  0.0000E+00  0.0000E+00  0.0000E+00  0.0000E+00  0.0000E+00  0.0000E+00  0.0000E+00  0.5540E-01  0.1083E-04  0.1527E+00  0.2491E+02
REACH    6        0     7  0.5361E+00  0.9808E-02  0.9795E-02  0.1300E-04  0.0000E+00  0.1527E-07  0.7936E-01  0.9377E+02  0.2171E-04  0.2165E-04  0.4788E-05  0.4772E-05  0.1275E+00  0.1274E+00  0.8767E-04  0.2160E-03  0.0000E+00  0.0000E+00  0.6773E-05  0.1964E-04  0.1546E-12  0.0000E+00  0.0000E+00  0.0000E+00  0.6889E+01  0.6820E+01  0.0000E+00  0.0000E+00  0.0000E+00  0.0000E+00  0.0000E+00  0.0000E+00  0.0000E+00  0.0000E+00  0.0000E+00  0.0000E+00  0.0000E+00  0.0000E+00  0.0000E+00  0.0000E+00  0.0000E+00  0.0000E+00  0.0000E+00  0.1276E+00  0.2441E-04  0.1505E+00  0.2491E+02
REACH    7        0     7  0.8570E+00  0.1536E-01  0.1535E-01  0.1002E-04  0.0000E+00  0.7936E-01  0.1399E+00  0.1055E+03  0.2166E-04  0.2163E-04  0.4811E-05  0.4803E-05  0.2195E+00  0.2194E+00  0.2717E-03  0.3723E-03  0.0000E+00  0.0000E+00  0.1966E-04  0.2977E-04  0.4612E-21  0.0000E+00  0.0000E+00  0.0000E+00  0.1074E+02  0.1069E+02  0.0000E+00  0.0000E+00  0.0000E+00  0.0000E+00  0.0000E+00  0.0000E+00  0.0000E+00  0.0000E+00  0.0000E+00  0.0000E+00  0.0000E+00  0.0000E+00  0.0000E+00  0.0000E+00  0.0000E+00  0.0000E+00  0.0000E+00  0.2198E+00  0.3457E-04  0.1654E+00  0.2491E+02
REACH    8        0     7  0.1082E+01  0.1993E-01  0.1992E-01  0.1627E-04  0.0000E+00  0.1399E+00  0.2003E+00  0.1164E+03  0.2164E-04  0.2160E-04  0.4830E-05  0.4819E-05  0.2824E+00  0.2822E+00  0.3780E-03  0.5427E-03  0.0000E+00  0.0000E+00  0.3009E-04  0.4665E-04  0.3970E-12  0.0000E+00  0.0000E+00  0.0000E+00  0.1392E+02  0.1387E+02  0.0000E+00  0.0000E+00  0.0000E+00  0.0000E+00  0.0000E+00  0.0000E+00  0.0000E+00  0.0000E+00  0.0000E+00  0.0000E+00  0.0000E+00  0.0000E+00  0.0000E+00  0.0000E+00  0.0000E+00  0.0000E+00  0.0000E+00  0.2828E+00  0.5147E-04  0.1640E+00  0.2491E+02
REACH    9        0     7  0.1363E+01  0.2537E-01  0.2537E-01  0.7372E-05  0.0000E+00  0.2003E+00  0.2764E+00  0.1261E+03  0.2161E-04  0.2159E-04  0.4831E-05  0.4827E-05  0.3547E+00  0.3546E+00  0.6246E-03  0.6997E-03  0.0000E+00  0.0000E+00  0.4890E-04  0.5646E-04  0.5364E-12  0.0000E+00  0.0000E+00  0.0000E+00  0.1768E+02  0.1766E+02  0.0000E+00  0.0000E+00  0.0000E+00  0.0000E+00  0.0000E+00  0.0000E+00  0.0000E+00  0.0000E+00  0.0000E+00  0.0000E+00  0.0000E+00  0.0000E+00  0.0000E+00  0.0000E+00  0.0000E+00  0.0000E+00  0.0000E+00  0.3553E+00  0.6128E-04  0.1618E+00  0.2491E+02
REACH    1        0     8  0.2442E+00  0.1890E-02  0.1882E-02  0.7989E-05  0.0000E+00  0.4805E-08  0.4805E-08  0.2955E-04  0.2442E-07  0.0000E+00  0.7325E-07  0.0000E+00  0.2209E-01  0.2199E-01  0.0000E+00  0.7667E-04  0.0000E+00  0.0000E+00  0.1648E-06  0.4923E-06  0.2010E-13  0.0000E+00  0.0000E+00  0.0000E+00  0.1350E+01  0.1308E+01  0.0000E+00  0.0000E+00  0.0000E+00  0.0000E+00  0.0000E+00  0.0000E+00  0.0000E+00  0.0000E+00  0.0000E+00  0.0000E+00  0.0000E+00  0.0000E+00  0.0000E+00  0.0000E+00  0.0000E+00  0.0000E+00  0.0000E+00  0.2207E-01  0.4923E-06  0.1353E+00  0.2499E+02
REACH    2        0     8  0.1348E+00  0.9592E-03  0.9586E-03  0.5552E-06  0.0000E+00  0.7874E-08  0.7874E-08  0.9507E-04  0.1348E-07  0.0000E+00  0.4044E-07  0.0000E+00  0.1204E-01  0.1204E-01  0.0000E+00  0.5148E-05  0.0000E+00  0.0000E+00  0.1644E-07  0.0000E+00  0.4255E-18  0.0000E+00  0.0000E+00  0.0000E+00  0.6850E+00  0.6665E+00  0.0000E+00  0.0000E+00  0.0000E+00  0.0000E+00  0.0000E+00  0.0000E+00  0.0000E+00  0.0000E+00  0.0000E+00  0.0000E+00  0.0000E+00  0.0000E+00  0.0000E+00  0.0000E+00  0.0000E+00  0.0000E+00  0.0000E+00  0.1204E-01  0.0000E+00  0.0000E+00  0.2499E+02
REACH    3        0     8  0.1273E+00  0.1002E-02  0.9997E-03  0.2209E-05  0.0000E+00  0.2000E-08  0.2000E-08  0.2315E-04  0.1273E-07  0.0000E+00  0.3820E-07  0.0000E+00  0.1138E-01  0.1135E-01  0.0000E+00  0.2034E-04  0.0000E+00  0.0000E+00  0.1275E-07  0.0000E+00  0.3257E-20  0.0000E+00  0.0000E+00  0.0000E+00  0.7155E+00  0.6951E+00  0.0000E+00  0.0000E+00  0.0000E+00  0.0000E+00  0.0000E+00  0.0000E+00  0.0000E+00  0.0000E+00  0.0000E+00  0.0000E+00  0.0000E+00  0.0000E+00  0.0000E+00  0.0000E+00  0.0000E+00  0.0000E+00  0.0000E+00  0.1137E-01  0.0000E+00  0.0000E+00  0.2499E+02
REACH    4        0     8  0.1895E+00  0.1105E-02  0.1100E-02  0.5907E-05  0.0000E+00  0.5000E-08  0.5000E-08  0.5263E-04  0.1895E-07  0.0000E+00  0.5685E-07  0.0000E+00  0.1820E-01  0.1811E-01  0.0000E+00  0.5585E-04  0.0000E+00  0.0000E+00  0.1897E-07  0.0000E+00  0.6973E-20  0.0000E+00  0.0000E+00  0.0000E+00  0.7895E+00  0.7645E+00  0.0000E+00  0.0000E+00  0.0000E+00  0.0000E+00  0.0000E+00  0.0000E+00  0.0000E+00  0.0000E+00  0.0000E+00  0.0000E+00  0.0000E+00  0.0000E+00  0.0000E+00  0.0000E+00  0.0000E+00  0.0000E+00  0.0000E+00  0.1816E-01  0.0000E+00  0.1906E+00  0.2499E+02
REACH    5        0     8  0.2556E+00  0.1533E-02  0.1526E-02  0.7022E-05  0.0000E+00  0.6353E-08  0.6353E-08  0.4819E-04  0.8602E-06  0.8543E-06  0.2561E-06  0.2540E-06  0.1917E-01  0.1908E-01  0.0000E+00  0.6756E-04  0.0000E+00  0.0000E+00  0.1310E-05  0.3912E-05  0.5593E-10  0.0000E+00  0.0000E+00  0.0000E+00  0.1095E+01  0.1061E+01  0.0000E+00  0.0000E+00  0.0000E+00  0.0000E+00  0.0000E+00  0.0000E+00  0.0000E+00  0.0000E+00  0.0000E+00  0.0000E+00  0.0000E+00  0.0000E+00  0.0000E+00  0.0000E+00  0.0000E+00  0.0000E+00  0.0000E+00  0.1915E-01  0.4166E-05  0.1448E+00  0.2499E+02
REACH    6        0     8  0.5361E+00  0.4023E-02  0.4010E-02  0.1254E-04  0.0000E+00  0.1527E-07  0.2771E-01  0.7998E+02  0.9726E-06  0.9681E-06  0.3221E-06  0.0000E+00  0.4491E-01  0.4477E-01  0.8790E-04  0.2115E-03  0.0000E+00  0.3575E-06  0.3928E-05  0.1175E-04  0.7984E-17  0.0000E+00  0.0000E+00  0.0000E+00  0.2825E+01  0.2788E+01  0.0000E+00  0.0000E+00  0.0000E+00  0.0000E+00  0.0000E+00  0.0000E+00  0.0000E+00  0.0000E+00  0.0000E+00  0.0000E+00  0.0000E+00  0.0000E+00  0.0000E+00  0.0000E+00  0.0000E+00  0.0000E+00  0.0000E+00  0.4499E-01  0.1175E-04  0.1292E+00  0.2499E+02
REACH    7        0     8  0.8570E+00  0.6243E-02  0.6233E-02  0.9859E-05  0.0000E+00  0.2771E-01  0.4749E-01  0.8818E+02  0.9812E-06  0.9788E-06  0.3943E-07  0.0000E+00  0.7842E-01  0.7830E-01  0.2673E-03  0.3653E-03  0.3575E-06  0.5577E-06  0.1176E-04  0.2163E-04  0.3577E-20  0.0000E+00  0.0000E+00  0.0000E+00  0.4362E+01  0.4333E+01  0.0000E+00  0.0000E+00  0.0000E+00  0.0000E+00  0.0000E+00  0.0000E+00  0.0000E+00  0.0000E+00  0.0000E+00  0.0000E+00  0.0000E+00  0.0000E+00  0.0000E+00  0.0000E+00  0.0000E+00  0.0000E+00  0.0000E+00  0.7867E-01  0.2163E-04  0.1454E+00  0.2499E+02
REACH    8        0     8  0.1082E+01  0.8341E-02  0.8324E-02  0.1691E-04  0.0000E+00  0.4749E-01  0.3504E-01  0.4872E+02  0.9878E-06  0.9838E-06  0.2700E-07  0.0000E+00  0.1014E+00  0.1012E+00  0.3704E-03  0.5342E-03  0.5577E-06  0.1947E-05  0.2182E-04  0.3842E-04  0.8888E-13  0.0000E+00  0.0000E+00  0.0000E+00  0.5821E+01  0.5787E+01  0.0000E+00  0.0000E+00  0.0000E+00  0.0000E+00  0.0000E+00  0.0000E+00  0.0000E+00  0.0000E+00  0.0000E+00  0.0000E+00  0.0000E+00  0.0000E+00  0.0000E+00  0.0000E+00  0.0000E+00  0.0000E+00  0.0000E+00  0.1017E+00  0.3842E-04  0.1407E+00  0.2499E+02
REACH    9        0     8  0.1363E+01  0.1070E-01  0.1069E-01  0.7664E-05  0.0000E+00  0.3504E-01  0.4915E-01  0.5319E+02  0.9875E-06  0.9861E-06  0.1114E-07  0.0000E+00  0.1270E+00  0.1269E+00  0.6109E-03  0.6853E-03  0.1947E-05  0.3083E-05  0.3892E-04  0.4650E-04  0.9039E-17  0.0000E+00  0.0000E+00  0.0000E+00  0.7450E+01  0.7435E+01  0.0000E+00  0.0000E+00  0.0000E+00  0.0000E+00  0.0000E+00  0.0000E+00  0.0000E+00  0.0000E+00  0.0000E+00  0.0000E+00  0.0000E+00  0.0000E+00  0.0000E+00  0.0000E+00  0.0000E+00  0.0000E+00  0.0000E+00  0.1276E+00  0.4650E-04  0.1374E+00  0.2499E+02
REACH    1        0     9  0.2442E+00  0.1362E+00  0.1361E+00  0.5621E-04  0.0000E+00  0.1055E+03  0.1055E+03  0.8968E+04  0.1774E+03  0.1772E+03  0.3906E+02  0.3899E+02  0.7671E+00  0.7647E+00  0.0000E+00  0.1290E+00  0.0000E+00  0.0000E+00  0.5334E-01  0.1002E+00  0.2786E+01  0.2683E+01  0.1586E+05  0.1574E+05  0.3970E+02  0.1089E+01  0.0000E+00  0.0000E+00  0.0000E+00  0.0000E+00  0.0000E+00  0.0000E+00  0.0000E+00  0.0000E+00  0.0000E+00  0.0000E+00  0.0000E+00  0.0000E+00  0.0000E+00  0.0000E+00  0.0000E+00  0.0000E+00  0.0000E+00  0.1781E+03  0.3909E+02  0.6503E-01  0.2405E+02
REACH    2        0     9  0.1348E+00  0.7631E-01  0.7630E-01  0.4257E-05  0.0000E+00  0.5542E+02  0.5542E+02  0.8407E+04  0.9405E+02  0.9404E+02  0.2070E+02  0.2070E+02  0.4112E+00  0.4110E+00  0.0000E+00  0.8330E-02  0.0000E+00  0.0000E+00  0.3641E-01  0.3943E-01  0.1501E+01  0.1493E+01  0.8453E+04  0.8445E+04  0.2165E+02  0.6103E+00  0.0000E+00  0.0000E+00  0.0000E+00  0.0000E+00  0.0000E+00  0.0000E+00  0.0000E+00  0.0000E+00  0.0000E+00  0.0000E+00  0.0000E+00  0.0000E+00  0.0000E+00  0.0000E+00  0.0000E+00  0.0000E+00  0.0000E+00  0.9446E+02  0.2074E+02  0.6235E-01  0.2405E+02
REACH    3        0     9  0.1273E+00  0.7084E-01  0.7083E-01  0.1653E-04  0.0000E+00  0.4198E+02  0.4198E+02  0.6859E+04  0.8283E+02  0.8279E+02  0.1820E+02  0.1819E+02  0.3958E+00  0.3954E+00  0.0000E+00  0.1997E-01  0.0000E+00  0.0000E+00  0.2810E-01  0.3534E-01  0.1283E+01  0.1262E+01  0.6705E+04  0.6688E+04  0.2078E+02  0.5665E+00  0.0000E+00  0.0000E+00  0.0000E+00  0.0000E+00  0.0000E+00  0.0000E+00  0.0000E+00  0.0000E+00  0.0000E+00  0.0000E+00  0.0000E+00  0.0000E+00  0.0000E+00  0.0000E+00  0.0000E+00  0.0000E+00  0.0000E+00  0.8321E+02  0.1823E+02  0.6461E-01  0.2405E+02
REACH    4        0     9  0.1895E+00  0.1129E+00  0.1129E+00  0.4199E-04  0.0000E+00  0.6260E+02  0.6260E+02  0.6418E+04  0.8846E+02  0.8839E+02  0.1956E+02  0.1953E+02  0.5986E+00  0.5970E+00  0.0000E+00  0.3740E-01  0.0000E+00  0.0000E+00  0.1214E+00  0.1348E+00  0.1475E+01  0.1437E+01  0.9007E+04  0.8967E+04  0.2546E+02  0.9030E+00  0.0000E+00  0.0000E+00  0.0000E+00  0.0000E+00  0.0000E+00  0.0000E+00  0.0000E+00  0.0000E+00  0.0000E+00  0.0000E+00  0.0000E+00  0.0000E+00  0.0000E+00  0.0000E+00  0.0000E+00  0.0000E+00  0.0000E+00  0.8903E+02  0.1967E+02  0.6121E-01  0.2405E+02
REACH    5        0     9  0.2556E+00  0.1473E+00  0.1473E+00  0.8933E-05  0.0000E+00  0.7235E+02  0.7235E+02  0.5683E+04  0.1529E+03  0.1528E+03  0.3361E+02  0.3360E+02  0.7637E+00  0.7630E+00  0.0000E+00  0.2870E-01  0.0000E+00  0.0000E+00  0.7831E-01  0.8867E-01  0.2613E+01  0.2581E+01  0.1268E+05  0.1266E+05  0.3743E+02  0.1179E+01  0.0000E+00  0.0000E+00  0.0000E+00  0.0000E+00  0.0000E+00  0.0000E+00  0.0000E+00  0.0000E+00  0.0000E+00  0.0000E+00  0.0000E+00  0.0000E+00  0.0000E+00  0.0000E+00  0.0000E+00  0.0000E+00  0.0000E+00  0.1536E+03  0.3369E+02  0.5994E-01  0.2405E+02
REACH    6        0     9  0.5361E+00  0.3015E+00  0.3014E+00  0.7884E-04  0.0000E+00  0.1588E+03  0.4924E+01  0.1891E+03  0.3272E+03  0.3269E+03  0.7189E+02  0.7181E+02  0.1650E+01  0.1646E+01  0.4867E-01  0.1460E+00  0.0000E+00  0.3670E-04  0.1599E+00  0.2235E+00  0.5208E+01  0.5095E+01  0.2639E+05  0.2625E+05  0.2736E+02  0.2411E+01  0.0000E+00  0.0000E+00  0.0000E+00  0.0000E+00  0.0000E+00  0.0000E+00  0.0000E+00  0.0000E+00  0.0000E+00  0.0000E+00  0.0000E+00  0.0000E+00  0.0000E+00  0.0000E+00  0.0000E+00  0.0000E+00  0.0000E+00  0.3287E+03  0.7203E+02  0.6319E-01  0.2405E+02
REACH    7        0     9  0.8570E+00  0.4889E+00  0.4889E+00  0.1132E-04  0.0000E+00  0.1143E+03  0.1855E+02  0.4391E+03  0.4961E+03  0.4960E+03  0.1092E+03  0.1092E+03  0.2694E+01  0.2692E+01  0.1834E+00  0.2482E+00  0.3670E-04  0.0000E+00  0.4097E+00  0.4331E+00  0.7852E+01  0.7811E+01  0.4243E+05  0.4238E+05  0.2324E+02  0.3911E+01  0.0000E+00  0.0000E+00  0.0000E+00  0.0000E+00  0.0000E+00  0.0000E+00  0.0000E+00  0.0000E+00  0.0000E+00  0.0000E+00  0.0000E+00  0.0000E+00  0.0000E+00  0.0000E+00  0.0000E+00  0.0000E+00  0.0000E+00  0.4989E+03  0.1096E+03  0.6374E-01  0.2405E+02
REACH    8        0     9  0.1082E+01  0.6120E+00  0.6120E+00  0.9445E-04  0.0000E+00  0.8726E+02  0.9202E+01  0.1740E+03  0.6285E+03  0.6281E+03  0.1383E+03  0.1382E+03  0.3474E+01  0.3466E+01  0.2565E+00  0.5448E+00  0.0000E+00  0.7483E-04  0.4954E+00  0.5997E+00  0.9770E+01  0.9634E+01  0.5291E+05  0.5267E+05  0.2095E+02  0.4895E+01  0.0000E+00  0.0000E+00  0.0000E+00  0.0000E+00  0.0000E+00  0.0000E+00  0.0000E+00  0.0000E+00  0.0000E+00  0.0000E+00  0.0000E+00  0.0000E+00  0.0000E+00  0.0000E+00  0.0000E+00  0.0000E+00  0.0000E+00  0.6321E+03  0.1388E+03  0.6556E-01  0.2405E+02
REACH    9        0     9  0.1363E+01  0.7667E+00  0.7667E+00  0.8141E-05  0.0000E+00  0.1201E+03  0.2675E+02  0.4038E+03  0.8204E+03  0.8204E+03  0.1805E+03  0.1805E+03  0.4348E+01  0.4346E+01  0.6737E+00  0.7366E+00  0.7483E-04  0.9100E-04  0.7111E+00  0.7339E+00  0.1254E+02  0.1250E+02  0.6933E+05  0.6928E+05  0.1212E+02  0.6133E+01  0.0000E+00  0.0000E+00  0.0000E+00  0.0000E+00  0.0000E+00  0.0000E+00  0.0000E+00  0.0000E+00  0.0000E+00  0.0000E+00  0.0000E+00  0.0000E+00  0.0000E+00  0.0000E+00  0.0000E+00  0.0000E+00  0.0000E+00  0.8254E+03  0.1812E+03  0.6561E-01  0.2405E+02
REACH    1        0    10  0.2442E+00  0.1151E+00  0.1151E+00  0.5224E-04  0.0000E+00  0.1679E-03  0.1679E-03  0.1689E-01  0.1258E+03  0.1257E+03  0.2771E+02  0.2768E+02  0.1279E+01  0.1278E+01  0.0000E+00  0.4095E-01  0.0000E+00  0.0000E+00  0.2828E-01  0.4323E-01  0.9741E+00  0.9550E+00  0.5193E-01  0.5174E-01  0.8415E+02  0.8199E+02  0.0000E+00  0.0000E+00  0.0000E+00  0.0000E+00  0.0000E+00  0.0000E+00  0.0000E+00  0.0000E+00  0.0000E+00  0.0000E+00  0.0000E+00  0.0000E+00  0.0000E+00  0.0000E+00  0.0000E+00  0.0000E+00  0.0000E+00  0.1270E+03  0.2772E+02  0.1286E+00  0.2371E+02
REACH    2        0    10  0.1348E+00  0.6396E-01  0.6396E-01  0.4115E-05  0.0000E+00  0.7874E-08  0.7874E-08  0.1425E-05  0.6745E+02  0.6743E+02  0.1485E+02  0.1485E+02  0.6926E+00  0.6926E+00  0.0000E+00  0.7020E-02  0.0000E+00  0.0000E+00  0.1993E-01  0.2249E-01  0.5294E+00  0.5260E+00  0.1055E-05  0.0000E+00  0.4677E+02  0.4562E+02  0.0000E+00  0.0000E+00  0.0000E+00  0.0000E+00  0.0000E+00  0.0000E+00  0.0000E+00  0.0000E+00  0.0000E+00  0.0000E+00  0.0000E+00  0.0000E+00  0.0000E+00  0.0000E+00  0.0000E+00  0.0000E+00  0.0000E+00  0.6813E+02  0.1487E+02  0.1253E+00  0.2371E+02
REACH    3        0    10  0.1273E+00  0.5992E-01  0.5992E-01  0.3067E-05  0.0000E+00  0.2000E-08  0.2000E-08  0.3863E-06  0.5990E+02  0.5989E+02  0.1317E+02  0.1316E+02  0.6498E+00  0.6497E+00  0.0000E+00  0.7923E-02  0.0000E+00  0.0000E+00  0.1483E-01  0.1772E-01  0.4542E+00  0.4496E+00  0.1555E-06  0.0000E+00  0.4381E+02  0.4274E+02  0.0000E+00  0.0000E+00  0.0000E+00  0.0000E+00  0.0000E+00  0.0000E+00  0.0000E+00  0.0000E+00  0.0000E+00  0.0000E+00  0.0000E+00  0.0000E+00  0.0000E+00  0.0000E+00  0.0000E+00  0.0000E+00  0.0000E+00  0.6054E+02  0.1318E+02  0.1255E+00  0.2371E+02
REACH    4        0    10  0.1895E+00  0.9119E-01  0.9118E-01  0.7871E-05  0.0000E+00  0.1092E-01  0.1092E-01  0.1386E+01  0.6248E+02  0.6245E+02  0.1383E+02  0.1382E+02  0.9342E+00  0.9338E+00  0.0000E+00  0.1667E-01  0.0000E+00  0.0000E+00  0.7039E-01  0.7647E-01  0.5227E+00  0.5134E+00  0.1553E+01  0.1549E+01  0.6662E+02  0.6252E+02  0.0000E+00  0.0000E+00  0.0000E+00  0.0000E+00  0.0000E+00  0.0000E+00  0.0000E+00  0.0000E+00  0.0000E+00  0.0000E+00  0.0000E+00  0.0000E+00  0.0000E+00  0.0000E+00  0.0000E+00  0.0000E+00  0.0000E+00  0.6340E+02  0.1389E+02  0.1185E+00  0.2371E+02
REACH    5        0    10  0.2556E+00  0.1229E+00  0.1229E+00  0.8639E-05  0.0000E+00  0.1912E-01  0.1912E-01  0.1801E+01  0.1146E+03  0.1145E+03  0.2520E+02  0.2519E+02  0.1353E+01  0.1352E+01  0.0000E+00  0.2540E-01  0.0000E+00  0.0000E+00  0.4412E-01  0.5336E-01  0.9681E+00  0.9538E+00  0.2809E+01  0.2803E+01  0.8974E+02  0.8313E+02  0.0000E+00  0.0000E+00  0.0000E+00  0.0000E+00  0.0000E+00  0.0000E+00  0.0000E+00  0.0000E+00  0.0000E+00  0.0000E+00  0.0000E+00  0.0000E+00  0.0000E+00  0.0000E+00  0.0000E+00  0.0000E+00  0.0000E+00  0.1159E+03  0.2524E+02  0.1274E+00  0.2371E+02
REACH    6        0    10  0.5361E+00  0.2536E+00  0.2535E+00  0.7471E-04  0.0000E+00  0.1912E-01  0.7183E+01  0.3279E+03  0.2398E+03  0.2397E+03  0.5272E+02  0.5267E+02  0.2768E+01  0.2767E+01  0.3332E-01  0.9993E-01  0.0000E+00  0.2993E-04  0.8959E-01  0.1163E+00  0.1876E+01  0.1850E+01  0.2803E+01  0.2794E+01  0.1776E+03  0.1762E+03  0.0000E+00  0.0000E+00  0.0000E+00  0.0000E+00  0.0000E+00  0.0000E+00  0.0000E+00  0.0000E+00  0.0000E+00  0.0000E+00  0.0000E+00  0.0000E+00  0.0000E+00  0.0000E+00  0.0000E+00  0.0000E+00  0.0000E+00  0.2426E+03  0.5279E+02  0.1263E+00  0.2371E+02
REACH    7        0    10  0.8570E+00  0.4065E+00  0.4065E+00  0.1056E-04  0.0000E+00  0.7204E+01  0.1429E+02  0.4070E+03  0.3597E+03  0.3597E+03  0.7926E+02  0.7924E+02  0.4419E+01  0.4418E+01  0.1166E+00  0.1666E+00  0.2993E-04  0.4769E-04  0.2213E+00  0.2395E+00  0.2860E+01  0.2843E+01  0.6129E+01  0.6121E+01  0.2838E+03  0.2798E+03  0.0000E+00  0.0000E+00  0.0000E+00  0.0000E+00  0.0000E+00  0.0000E+00  0.0000E+00  0.0000E+00  0.0000E+00  0.0000E+00  0.0000E+00  0.0000E+00  0.0000E+00  0.0000E+00  0.0000E+00  0.0000E+00  0.0000E+00  0.3642E+03  0.7948E+02  0.1258E+00  0.2371E+02
REACH    8        0    10  0.1082E+01  0.5109E+00  0.5108E+00  0.1739E-04  0.0000E+00  0.1436E+02  0.1612E+02  0.3652E+03  0.4527E+03  0.4525E+03  0.9969E+02  0.9965E+02  0.5617E+01  0.5615E+01  0.1736E+00  0.2712E+00  0.4769E-04  0.1431E-03  0.2732E+00  0.3088E+00  0.3550E+01  0.3521E+01  0.2107E+02  0.2102E+02  0.3533E+03  0.3310E+03  0.0000E+00  0.0000E+00  0.0000E+00  0.0000E+00  0.0000E+00  0.0000E+00  0.0000E+00  0.0000E+00  0.0000E+00  0.0000E+00  0.0000E+00  0.0000E+00  0.0000E+00  0.0000E+00  0.0000E+00  0.0000E+00  0.0000E+00  0.4584E+03  0.9996E+02  0.1272E+00  0.2371E+02
REACH    9        0    10  0.1363E+01  0.6426E+00  0.6426E+00  0.7711E-05  0.0000E+00  0.1612E+02  0.2045E+02  0.3684E+03  0.5891E+03  0.5890E+03  0.1297E+03  0.1297E+03  0.7059E+01  0.7058E+01  0.3121E+00  0.3610E+00  0.1431E-03  0.2191E-03  0.3594E+00  0.3772E+00  0.4556E+01  0.4543E+01  0.2107E+02  0.2106E+02  0.4251E+03  0.4244E+03  0.0000E+00  0.0000E+00  0.0000E+00  0.0000E+00  0.0000E+00  0.0000E+00  0.0000E+00  0.0000E+00  0.0000E+00  0.0000E+00  0.0000E+00  0.0000E+00  0.0000E+00  0.0000E+00  0.0000E+00  0.0000E+00  0.0000E+00  0.5965E+03  0.1301E+03  0.1271E+00  0.2371E+02
REACH    1        0    11  0.2442E+00  0.1301E+00  0.1301E+00  0.2862E-04  0.0000E+00  0.9261E+02  0.9261E+02  0.8241E+04  0.1174E+03  0.1173E+03  0.2585E+02  0.2581E+02  0.1710E+01  0.1709E+01  0.0000E+00  0.9052E-01  0.0000E+00  0.0000E+00  0.3165E-01  0.6472E-01  0.9196E+00  0.8837E+00  0.9218E+04  0.9148E+04  0.5586E+02  0.1042E+01  0.0000E+00  0.0000E+00  0.0000E+00  0.0000E+00  0.0000E+00  0.0000E+00  0.0000E+00  0.0000E+00  0.0000E+00  0.0000E+00  0.0000E+00  0.0000E+00  0.0000E+00  0.0000E+00  0.0000E+00  0.0000E+00  0.0000E+00  0.1191E+03  0.2588E+02  0.1521E+00  0.2431E+02
REACH    2        0    11  0.1348E+00  0.7232E-01  0.7232E-01  0.2167E-05  0.0000E+00  0.4885E+02  0.4885E+02  0.7818E+04  0.6296E+02  0.6295E+02  0.1386E+02  0.1386E+02  0.9365E+00  0.9364E+00  0.0000E+00  0.5961E-02  0.0000E+00  0.0000E+00  0.2222E-01  0.2440E-01  0.5018E+00  0.4990E+00  0.4925E+04  0.4921E+04  0.3025E+02  0.5793E+00  0.0000E+00  0.0000E+00  0.0000E+00  0.0000E+00  0.0000E+00  0.0000E+00  0.0000E+00  0.0000E+00  0.0000E+00  0.0000E+00  0.0000E+00  0.0000E+00  0.0000E+00  0.0000E+00  0.0000E+00  0.0000E+00  0.0000E+00  0.6390E+02  0.1389E+02  0.1499E+00  0.2431E+02
REACH    3        0    11  0.1273E+00  0.6771E-01  0.6770E-01  0.8408E-05  0.0000E+00  0.3678E+02  0.3678E+02  0.6289E+04  0.5692E+02  0.5690E+02  0.1251E+02  0.1250E+02  0.8678E+00  0.8676E+00  0.0000E+00  0.1455E-01  0.0000E+00  0.0000E+00  0.1666E-01  0.2196E-01  0.4386E+00  0.4309E+00  0.3880E+04  0.3870E+04  0.2918E+02  0.5423E+00  0.0000E+00  0.0000E+00  0.0000E+00  0.0000E+00  0.0000E+00  0.0000E+00  0.0000E+00  0.0000E+00  0.0000E+00  0.0000E+00  0.0000E+00  0.0000E+00  0.0000E+00  0.0000E+00  0.0000E+00  0.0000E+00  0.0000E+00  0.5778E+02  0.1253E+02  0.1483E+00  0.2431E+02
REACH    4        0    11  0.1895E+00  0.1025E+00  0.1025E+00  0.2130E-04  0.0000E+00  0.5555E+02  0.5555E+02  0.6271E+04  0.5667E+02  0.5663E+02  0.1254E+02  0.1253E+02  0.1145E+01  0.1144E+01  0.0000E+00  0.2675E-01  0.0000E+00  0.0000E+00  0.7779E-01  0.8754E-01  0.4808E+00  0.4671E+00  0.5316E+04  0.5290E+04  0.3617E+02  0.8212E+00  0.0000E+00  0.0000E+00  0.0000E+00  0.0000E+00  0.0000E+00  0.0000E+00  0.0000E+00  0.0000E+00  0.0000E+00  0.0000E+00  0.0000E+00  0.0000E+00  0.0000E+00  0.0000E+00  0.0000E+00  0.0000E+00  0.0000E+00  0.5780E+02  0.1262E+02  0.1292E+00  0.2431E+02
REACH    5        0    11  0.2556E+00  0.1373E+00  0.1373E+00  0.4542E-05  0.0000E+00  0.6279E+02  0.6279E+02  0.5293E+04  0.1071E+03  0.1071E+03  0.2356E+02  0.2355E+02  0.1488E+01  0.1487E+01  0.0000E+00  0.2187E-01  0.0000E+00  0.0000E+00  0.4849E-01  0.5645E-01  0.9143E+00  0.9020E+00  0.7274E+04  0.7259E+04  0.5379E+02  0.1100E+01  0.0000E+00  0.0000E+00  0.0000E+00  0.0000E+00  0.0000E+00  0.0000E+00  0.0000E+00  0.0000E+00  0.0000E+00  0.0000E+00  0.0000E+00  0.0000E+00  0.0000E+00  0.0000E+00  0.0000E+00  0.0000E+00  0.0000E+00  0.1086E+03  0.2361E+02  0.1254E+00  0.2431E+02
REACH    6        0    11  0.5361E+00  0.2848E+00  0.2848E+00  0.4015E-04  0.0000E+00  0.1383E+03  0.4394E+01  0.1786E+03  0.2265E+03  0.2263E+03  0.4978E+02  0.4972E+02  0.3343E+01  0.3342E+01  0.3642E-01  0.1092E+00  0.0000E+00  0.3785E-04  0.9926E-01  0.1469E+00  0.1791E+01  0.1749E+01  0.1517E+05  0.1508E+05  0.3716E+02  0.2281E+01  0.0000E+00  0.0000E+00  0.0000E+00  0.0000E+00  0.0000E+00  0.0000E+00  0.0000E+00  0.0000E+00  0.0000E+00  0.0000E+00  0.0000E+00  0.0000E+00  0.0000E+00  0.0000E+00  0.0000E+00  0.0000E+00  0.0000E+00  0.2298E+03  0.4987E+02  0.1358E+00  0.2431E+02
REACH    7        0    11  0.8570E+00  0.4569E+00  0.4569E+00  0.5765E-05  0.0000E+00  0.1009E+03  0.1620E+02  0.4103E+03  0.3368E+03  0.3367E+03  0.7418E+02  0.7416E+02  0.5395E+01  0.5394E+01  0.1360E+00  0.1837E+00  0.3785E-04  0.0000E+00  0.2659E+00  0.2833E+00  0.2682E+01  0.2667E+01  0.2463E+05  0.2460E+05  0.3113E+02  0.3660E+01  0.0000E+00  0.0000E+00  0.0000E+00  0.0000E+00  0.0000E+00  0.0000E+00  0.0000E+00  0.0000E+00  0.0000E+00  0.0000E+00  0.0000E+00  0.0000E+00  0.0000E+00  0.0000E+00  0.0000E+00  0.0000E+00  0.0000E+00  0.3423E+03  0.7445E+02  0.1366E+00  0.2431E+02
REACH    8        0    11  0.1082E+01  0.5745E+00  0.5744E+00  0.4687E-04  0.0000E+00  0.7569E+02  0.1858E+02  0.3744E+03  0.4250E+03  0.4249E+03  0.9357E+02  0.9353E+02  0.6893E+01  0.6892E+01  0.1897E+00  0.2817E+00  0.0000E+00  0.0000E+00  0.3203E+00  0.3538E+00  0.3335E+01  0.3310E+01  0.3069E+05  0.3063E+05  0.2636E+02  0.4601E+01  0.0000E+00  0.0000E+00  0.0000E+00  0.0000E+00  0.0000E+00  0.0000E+00  0.0000E+00  0.0000E+00  0.0000E+00  0.0000E+00  0.0000E+00  0.0000E+00  0.0000E+00  0.0000E+00  0.0000E+00  0.0000E+00  0.0000E+00  0.4321E+03  0.9388E+02  0.1389E+00  0.2431E+02
REACH    9        0    11  0.1363E+01  0.7231E+00  0.7231E+00  0.2084E-04  0.0000E+00  0.1158E+03  0.2379E+02  0.3808E+03  0.5528E+03  0.5527E+03  0.1217E+03  0.1216E+03  0.8797E+01  0.8796E+01  0.3722E+00  0.4178E+00  0.0000E+00  0.0000E+00  0.4267E+00  0.4433E+00  0.4273E+01  0.4261E+01  0.4030E+05  0.4026E+05  0.1452E+02  0.5792E+01  0.0000E+00  0.0000E+00  0.0000E+00  0.0000E+00  0.0000E+00  0.0000E+00  0.0000E+00  0.0000E+00  0.0000E+00  0.0000E+00  0.0000E+00  0.0000E+00  0.0000E+00  0.0000E+00  0.0000E+00  0.0000E+00  0.0000E+00  0.5619E+03  0.1221E+03  0.1408E+00  0.2431E+02
REACH    1        0    12  0.2442E+00  0.1012E+00  0.1012E+00  0.4534E-05  0.0000E+00  0.8718E-05  0.8718E-05  0.9974E-03  0.4741E+02  0.4739E+02  0.1045E+02  0.1044E+02  0.1704E+01  0.1704E+01  0.0000E+00  0.1522E-01  0.0000E+00  0.0000E+00  0.1619E-01  0.2174E-01  0.1999E+00  0.1956E+00  0.2442E-02  0.2434E-02  0.7295E+02  0.7108E+02  0.0000E+00  0.0000E+00  0.0000E+00  0.0000E+00  0.0000E+00  0.0000E+00  0.0000E+00  0.0000E+00  0.0000E+00  0.0000E+00  0.0000E+00  0.0000E+00  0.0000E+00  0.0000E+00  0.0000E+00  0.0000E+00  0.0000E+00  0.4911E+02  0.1046E+02  0.1949E+00  0.2446E+02
REACH    2        0    12  0.1348E+00  0.5615E-01  0.5614E-01  0.1870E-05  0.0000E+00  0.7874E-08  0.7874E-08  0.1623E-05  0.2572E+02  0.2571E+02  0.5666E+01  0.5664E+01  0.9413E+00  0.9412E+00  0.0000E+00  0.3168E-02  0.0000E+00  0.0000E+00  0.1192E-01  0.1307E-01  0.1087E+00  0.1079E+00  0.8446E-06  0.0000E+00  0.4049E+02  0.3945E+02  0.0000E+00  0.0000E+00  0.0000E+00  0.0000E+00  0.0000E+00  0.0000E+00  0.0000E+00  0.0000E+00  0.0000E+00  0.0000E+00  0.0000E+00  0.0000E+00  0.0000E+00  0.0000E+00  0.0000E+00  0.0000E+00  0.0000E+00  0.2666E+02  0.5677E+01  0.1940E+00  0.2446E+02
REACH    3        0    12  0.1273E+00  0.5265E-01  0.5265E-01  0.7048E-05  0.0000E+00  0.2000E-08  0.2000E-08  0.4397E-06  0.2334E+02  0.2333E+02  0.5133E+01  0.5131E+01  0.8635E+00  0.8634E+00  0.0000E+00  0.3654E-02  0.0000E+00  0.0000E+00  0.8464E-02  0.9792E-02  0.9568E-01  0.9453E-01  0.1163E-06  0.0000E+00  0.3797E+02  0.3699E+02  0.0000E+00  0.0000E+00  0.0000E+00  0.0000E+00  0.0000E+00  0.0000E+00  0.0000E+00  0.0000E+00  0.0000E+00  0.0000E+00  0.0000E+00  0.0000E+00  0.0000E+00  0.0000E+00  0.0000E+00  0.0000E+00  0.0000E+00  0.2420E+02  0.5141E+01  0.1898E+00  0.2446E+02
REACH    4        0    12  0.1895E+00  0.7938E-01  0.7938E-01  0.3350E-05  0.0000E+00  0.5000E-08  0.5000E-08  0.7291E-06  0.2292E+02  0.2291E+02  0.5077E+01  0.5074E+01  0.1150E+01  0.1150E+01  0.0000E+00  0.5926E-02  0.0000E+00  0.0000E+00  0.4555E-01  0.4771E-01  0.1051E+00  0.1030E+00  0.6703E-06  0.0000E+00  0.5724E+02  0.5577E+02  0.0000E+00  0.0000E+00  0.0000E+00  0.0000E+00  0.0000E+00  0.0000E+00  0.0000E+00  0.0000E+00  0.0000E+00  0.0000E+00  0.0000E+00  0.0000E+00  0.0000E+00  0.0000E+00  0.0000E+00  0.0000E+00  0.0000E+00  0.2407E+02  0.5122E+01  0.1676E+00  0.2446E+02
REACH    5        0    12  0.2556E+00  0.1058E+00  0.1058E+00  0.3635E-05  0.0000E+00  0.1058E-04  0.1058E-04  0.1158E-02  0.4562E+02  0.4561E+02  0.1004E+02  0.1003E+02  0.1404E+01  0.1404E+01  0.0000E+00  0.9967E-02  0.0000E+00  0.0000E+00  0.2682E-01  0.3045E-01  0.2094E+00  0.2060E+00  0.8553E-06  0.0000E+00  0.7629E+02  0.7433E+02  0.0000E+00  0.0000E+00  0.0000E+00  0.0000E+00  0.0000E+00  0.0000E+00  0.0000E+00  0.0000E+00  0.0000E+00  0.0000E+00  0.0000E+00  0.0000E+00  0.0000E+00  0.0000E+00  0.0000E+00  0.0000E+00  0.0000E+00  0.4702E+02  0.1006E+02  0.1536E+00  0.2446E+02
REACH    6        0    12  0.5361E+00  0.2206E+00  0.2206E+00  0.6655E-05  0.0000E+00  0.1059E-04  0.6156E+01  0.3230E+03  0.9416E+02  0.9412E+02  0.2070E+02  0.2069E+02  0.3235E+01  0.3235E+01  0.1362E-01  0.4086E-01  0.0000E+00  0.0000E+00  0.5061E-01  0.6167E-01  0.3990E+00  0.3929E+00  0.9444E-06  0.0000E+00  0.1561E+03  0.1550E+03  0.0000E+00  0.0000E+00  0.0000E+00  0.0000E+00  0.0000E+00  0.0000E+00  0.0000E+00  0.0000E+00  0.0000E+00  0.0000E+00  0.0000E+00  0.0000E+00  0.0000E+00  0.0000E+00  0.0000E+00  0.0000E+00  0.0000E+00  0.9740E+02  0.2075E+02  0.1697E+00  0.2446E+02
REACH    7        0    12  0.8570E+00  0.3539E+00  0.3539E+00  0.4632E-05  0.0000E+00  0.6156E+01  0.1218E+02  0.3985E+03  0.1389E+03  0.1389E+03  0.3063E+02  0.3062E+02  0.5287E+01  0.5287E+01  0.4679E-01  0.6727E-01  0.0000E+00  0.0000E+00  0.1268E+00  0.1343E+00  0.6073E+00  0.6031E+00  0.1461E-05  0.0000E+00  0.2496E+03  0.2486E+03  0.0000E+00  0.0000E+00  0.0000E+00  0.0000E+00  0.0000E+00  0.0000E+00  0.0000E+00  0.0000E+00  0.0000E+00  0.0000E+00  0.0000E+00  0.0000E+00  0.0000E+00  0.0000E+00  0.0000E+00  0.0000E+00  0.0000E+00  0.1443E+03  0.3076E+02  0.1729E+00  0.2446E+02
REACH    8        0    12  0.1082E+01  0.4454E+00  0.4454E+00  0.7693E-05  0.0000E+00  0.1218E+02  0.1353E+02  0.3515E+03  0.1740E+03  0.1739E+03  0.3834E+02  0.3832E+02  0.6743E+01  0.6742E+01  0.7044E-01  0.1109E+00  0.0000E+00  0.4933E-04  0.1533E+00  0.1681E+00  0.7634E+00  0.7563E+00  0.1410E-05  0.0000E+00  0.3136E+03  0.3129E+03  0.0000E+00  0.0000E+00  0.0000E+00  0.0000E+00  0.0000E+00  0.0000E+00  0.0000E+00  0.0000E+00  0.0000E+00  0.0000E+00  0.0000E+00  0.0000E+00  0.0000E+00  0.0000E+00  0.0000E+00  0.0000E+00  0.0000E+00  0.1808E+03  0.3849E+02  0.1752E+00  0.2446E+02
REACH    9        0    12  0.1363E+01  0.5610E+00  0.5610E+00  0.3426E-05  0.0000E+00  0.1353E+02  0.1706E+02  0.3520E+03  0.2255E+03  0.2255E+03  0.4968E+02  0.4968E+02  0.8631E+01  0.8631E+01  0.1261E+00  0.1464E+00  0.4933E-04  0.8355E-04  0.1943E+00  0.2018E+00  0.9702E+00  0.9670E+00  0.2435E-02  0.2433E-02  0.3943E+03  0.3940E+03  0.0000E+00  0.0000E+00  0.0000E+00  0.0000E+00  0.0000E+00  0.0000E+00  0.0000E+00  0.0000E+00  0.0000E+00  0.0000E+00  0.0000E+00  0.0000E+00  0.0000E+00  0.0000E+00  0.0000E+00  0.0000E+00  0.0000E+00  0.2343E+03  0.4988E+02  0.1781E+00  0.2446E+02
REACH    1        0    13  0.2442E+00  0.4870E-01  0.4870E-01  0.3914E-05  0.0000E+00  0.8552E+00  0.8552E+00  0.2032E+03  0.1177E+01  0.1176E+01  0.2602E+00  0.2600E+00  0.1088E+01  0.1088E+01  0.0000E+00  0.6008E-03  0.0000E+00  0.0000E+00  0.9229E-03  0.1118E-02  0.2073E-03  0.1992E-03  0.1440E+02  0.1434E+02  0.3381E+02  0.1675E+02  0.0000E+00  0.0000E+00  0.0000E+00  0.0000E+00  0.0000E+00  0.0000E+00  0.0000E+00  0.0000E+00  0.0000E+00  0.0000E+00  0.0000E+00  0.0000E+00  0.0000E+00  0.0000E+00  0.0000E+00  0.0000E+00  0.0000E+00  0.2265E+01  0.2611E+00  0.2585E+00  0.2461E+02
REACH    2        0    13  0.1348E+00  0.2669E-01  0.2669E-01  0.3215E-06  0.0000E+00  0.4446E+00  0.4446E+00  0.1928E+03  0.6461E+00  0.6461E+00  0.1425E+00  0.1425E+00  0.6045E+00  0.6045E+00  0.0000E+00  0.4545E-04  0.0000E+00  0.0000E+00  0.8800E-03  0.8948E-03  0.5870E-04  0.5838E-04  0.6389E+01  0.6385E+01  0.1853E+02  0.1051E+02  0.0000E+00  0.0000E+00  0.0000E+00  0.0000E+00  0.0000E+00  0.0000E+00  0.0000E+00  0.0000E+00  0.0000E+00  0.0000E+00  0.0000E+00  0.0000E+00  0.0000E+00  0.0000E+00  0.0000E+00  0.0000E+00  0.0000E+00  0.1251E+01  0.1434E+00  0.2621E+00  0.2461E+02
REACH    3        0    13  0.1273E+00  0.2537E-01  0.2537E-01  0.1156E-05  0.0000E+00  0.3269E+00  0.3269E+00  0.1491E+03  0.5686E+00  0.5684E+00  0.1253E+00  0.1252E+00  0.5503E+00  0.5503E+00  0.0000E+00  0.1315E-03  0.0000E+00  0.0000E+00  0.4312E-03  0.4723E-03  0.5002E-04  0.4899E-04  0.4965E+01  0.4956E+01  0.1765E+02  0.1109E+02  0.0000E+00  0.0000E+00  0.0000E+00  0.0000E+00  0.0000E+00  0.0000E+00  0.0000E+00  0.0000E+00  0.0000E+00  0.0000E+00  0.0000E+00  0.0000E+00  0.0000E+00  0.0000E+00  0.0000E+00  0.0000E+00  0.0000E+00  0.1119E+01  0.1257E+00  0.2510E+00  0.2461E+02
REACH    4        0    13  0.1895E+00  0.3608E-01  0.3608E-01  0.2798E-05  0.0000E+00  0.5378E+00  0.5378E+00  0.1725E+03  0.6094E+00  0.6091E+00  0.1355E+00  0.1354E+00  0.7491E+00  0.7491E+00  0.0000E+00  0.2707E-03  0.0000E+00  0.0000E+00  0.5159E-02  0.5240E-02  0.1268E-03  0.1221E-03  0.9216E+01  0.9186E+01  0.2497E+02  0.1367E+02  0.0000E+00  0.0000E+00  0.0000E+00  0.0000E+00  0.0000E+00  0.0000E+00  0.0000E+00  0.0000E+00  0.0000E+00  0.0000E+00  0.0000E+00  0.0000E+00  0.0000E+00  0.0000E+00  0.0000E+00  0.0000E+00  0.0000E+00  0.1358E+01  0.1407E+00  0.2403E+00  0.2461E+02
REACH    5        0    13  0.2556E+00  0.4910E-01  0.4910E-01  0.3109E-05  0.0000E+00  0.6034E+00  0.6034E+00  0.1422E+03  0.1225E+01  0.1225E+01  0.2698E+00  0.2696E+00  0.8917E+00  0.8916E+00  0.0000E+00  0.4241E-03  0.0000E+00  0.0000E+00  0.2205E-02  0.2339E-02  0.1983E-03  0.1920E-03  0.1304E+02  0.1300E+02  0.3384E+02  0.1815E+02  0.0000E+00  0.0000E+00  0.0000E+00  0.0000E+00  0.0000E+00  0.0000E+00  0.0000E+00  0.0000E+00  0.0000E+00  0.0000E+00  0.0000E+00  0.0000E+00  0.0000E+00  0.0000E+00  0.0000E+00  0.0000E+00  0.0000E+00  0.2117E+01  0.2719E+00  0.2102E+00  0.2461E+02
REACH    6        0    13  0.5361E+00  0.1048E+00  0.1048E+00  0.5831E-05  0.0000E+00  0.1267E+01  0.2178E+01  0.2404E+03  0.2371E+01  0.2369E+01  0.5221E+00  0.5216E+00  0.2053E+01  0.2053E+01  0.5556E-03  0.1667E-02  0.0000E+00  0.0000E+00  0.3329E-02  0.3721E-02  0.2946E-03  0.2862E-03  0.2305E+02  0.2295E+02  0.5047E+02  0.4324E+02  0.0000E+00  0.0000E+00  0.0000E+00  0.0000E+00  0.0000E+00  0.0000E+00  0.0000E+00  0.0000E+00  0.0000E+00  0.0000E+00  0.0000E+00  0.0000E+00  0.0000E+00  0.0000E+00  0.0000E+00  0.0000E+00  0.0000E+00  0.4424E+01  0.5253E+00  0.2267E+00  0.2461E+02
REACH    7        0    13  0.8570E+00  0.1664E+00  0.1664E+00  0.4178E-05  0.0000E+00  0.3130E+01  0.4126E+01  0.2870E+03  0.3569E+01  0.3568E+01  0.7897E+00  0.7893E+00  0.3383E+01  0.3383E+01  0.1937E-02  0.2781E-02  0.0000E+00  0.0000E+00  0.1063E-01  0.1091E-01  0.7072E-03  0.6976E-03  0.4272E+02  0.4264E+02  0.7440E+02  0.6279E+02  0.0000E+00  0.0000E+00  0.0000E+00  0.0000E+00  0.0000E+00  0.0000E+00  0.0000E+00  0.0000E+00  0.0000E+00  0.0000E+00  0.0000E+00  0.0000E+00  0.0000E+00  0.0000E+00  0.0000E+00  0.0000E+00  0.0000E+00  0.6954E+01  0.8002E+00  0.2353E+00  0.2461E+02
REACH    8        0    13  0.1082E+01  0.2110E+00  0.2110E+00  0.6828E-05  0.0000E+00  0.4715E+01  0.4928E+01  0.2703E+03  0.4433E+01  0.4432E+01  0.9806E+00  0.9800E+00  0.4301E+01  0.4301E+01  0.2827E-02  0.4354E-02  0.0000E+00  0.0000E+00  0.1220E-01  0.1272E-01  0.3531E-02  0.3469E-02  0.7286E+02  0.7264E+02  0.8574E+02  0.6449E+02  0.0000E+00  0.0000E+00  0.0000E+00  0.0000E+00  0.0000E+00  0.0000E+00  0.0000E+00  0.0000E+00  0.0000E+00  0.0000E+00  0.0000E+00  0.0000E+00  0.0000E+00  0.0000E+00  0.0000E+00  0.0000E+00  0.0000E+00  0.8737E+01  0.9927E+00  0.2359E+00  0.2461E+02
REACH    9        0    13  0.1363E+01  0.2667E+00  0.2667E+00  0.3001E-05  0.0000E+00  0.5822E+01  0.6821E+01  0.2960E+03  0.5699E+01  0.5699E+01  0.1260E+01  0.1260E+01  0.5503E+01  0.5503E+01  0.4955E-02  0.5650E-02  0.0000E+00  0.0000E+00  0.1454E-01  0.1478E-01  0.3703E-02  0.3679E-02  0.8777E+02  0.8768E+02  0.8610E+02  0.8468E+02  0.0000E+00  0.0000E+00  0.0000E+00  0.0000E+00  0.0000E+00  0.0000E+00  0.0000E+00  0.0000E+00  0.0000E+00  0.0000E+00  0.0000E+00  0.0000E+00  0.0000E+00  0.0000E+00  0.0000E+00  0.0000E+00  0.0000E+00  0.1121E+02  0.1275E+01  0.2389E+00  0.2461E+02
REACH    1        0    14  0.2442E+00  0.5668E-01  0.5668E-01  0.4706E-05  0.0000E+00  0.5728E+01  0.5728E+01  0.1170E+04  0.8185E+01  0.8179E+01  0.1807E+01  0.1805E+01  0.1116E+01  0.1116E+01  0.0000E+00  0.3885E-02  0.0000E+00  0.0000E+00  0.4164E-02  0.5566E-02  0.1134E-01  0.1094E-01  0.2810E+03  0.2797E+03  0.3521E+02  0.4544E+00  0.0000E+00  0.0000E+00  0.0000E+00  0.0000E+00  0.0000E+00  0.0000E+00  0.0000E+00  0.0000E+00  0.0000E+00  0.0000E+00  0.0000E+00  0.0000E+00  0.0000E+00  0.0000E+00  0.0000E+00  0.0000E+00  0.0000E+00  0.9299E+01  0.1811E+01  0.2278E+00  0.2442E+02
REACH    2        0    14  0.1348E+00  0.3153E-01  0.3153E-01  0.3874E-06  0.0000E+00  0.3039E+01  0.3039E+01  0.1115E+04  0.4533E+01  0.4533E+01  0.9997E+00  0.9996E+00  0.6215E+00  0.6215E+00  0.0000E+00  0.2985E-03  0.0000E+00  0.0000E+00  0.3464E-02  0.3572E-02  0.5790E-02  0.5761E-02  0.1471E+03  0.1470E+03  0.1949E+02  0.2529E+00  0.0000E+00  0.0000E+00  0.0000E+00  0.0000E+00  0.0000E+00  0.0000E+00  0.0000E+00  0.0000E+00  0.0000E+00  0.0000E+00  0.0000E+00  0.0000E+00  0.0000E+00  0.0000E+00  0.0000E+00  0.0000E+00  0.0000E+00  0.5155E+01  0.1003E+01  0.2282E+00  0.2442E+02
REACH    3        0    14  0.1273E+00  0.2949E-01  0.2949E-01  0.1278E-05  0.0000E+00  0.2246E+01  0.2246E+01  0.8813E+03  0.4033E+01  0.4032E+01  0.8882E+00  0.8879E+00  0.5644E+00  0.5644E+00  0.0000E+00  0.6590E-03  0.0000E+00  0.0000E+00  0.2122E-02  0.2357E-02  0.5092E-02  0.5002E-02  0.1146E+03  0.1144E+03  0.1838E+02  0.2380E+00  0.0000E+00  0.0000E+00  0.0000E+00  0.0000E+00  0.0000E+00  0.0000E+00  0.0000E+00  0.0000E+00  0.0000E+00  0.0000E+00  0.0000E+00  0.0000E+00  0.0000E+00  0.0000E+00  0.0000E+00  0.0000E+00  0.0000E+00  0.4597E+01  0.8902E+00  0.2215E+00  0.2442E+02
REACH    4        0    14  0.1895E+00  0.4510E-01  0.4509E-01  0.3427E-05  0.0000E+00  0.3544E+01  0.3544E+01  0.9097E+03  0.4128E+01  0.4126E+01  0.9161E+00  0.9155E+00  0.7705E+00  0.7705E+00  0.0000E+00  0.1521E-02  0.0000E+00  0.0000E+00  0.1609E-01  0.1663E-01  0.6092E-02  0.5898E-02  0.1654E+03  0.1649E+03  0.2708E+02  0.3657E+00  0.0000E+00  0.0000E+00  0.0000E+00  0.0000E+00  0.0000E+00  0.0000E+00  0.0000E+00  0.0000E+00  0.0000E+00  0.0000E+00  0.0000E+00  0.0000E+00  0.0000E+00  0.0000E+00  0.0000E+00  0.0000E+00  0.0000E+00  0.4898E+01  0.9321E+00  0.1978E+00  0.2442E+02
REACH    5        0    14  0.2556E+00  0.5927E-01  0.5927E-01  0.3758E-05  0.0000E+00  0.3967E+01  0.3967E+01  0.7746E+03  0.8438E+01  0.8435E+01  0.1857E+01  0.1856E+01  0.9049E+00  0.9048E+00  0.0000E+00  0.2657E-02  0.0000E+00  0.0000E+00  0.8300E-02  0.9252E-02  0.1183E-01  0.1150E-01  0.2284E+03  0.2277E+03  0.3569E+02  0.4786E+00  0.0000E+00  0.0000E+00  0.0000E+00  0.0000E+00  0.0000E+00  0.0000E+00  0.0000E+00  0.0000E+00  0.0000E+00  0.0000E+00  0.0000E+00  0.0000E+00  0.0000E+00  0.0000E+00  0.0000E+00  0.0000E+00  0.0000E+00  0.9342E+01  0.1865E+01  0.1767E+00  0.2442E+02
REACH    6        0    14  0.5361E+00  0.1236E+00  0.1236E+00  0.6448E-05  0.0000E+00  0.8535E+01  0.3025E+01  0.2833E+03  0.1663E+02  0.1662E+02  0.3661E+01  0.3658E+01  0.2094E+01  0.2094E+01  0.3316E-02  0.9527E-02  0.0000E+00  0.0000E+00  0.1409E-01  0.1633E-01  0.2170E-01  0.2117E-01  0.4596E+03  0.4580E+03  0.2282E+02  0.1001E+01  0.0000E+00  0.0000E+00  0.0000E+00  0.0000E+00  0.0000E+00  0.0000E+00  0.0000E+00  0.0000E+00  0.0000E+00  0.0000E+00  0.0000E+00  0.0000E+00  0.0000E+00  0.0000E+00  0.0000E+00  0.0000E+00  0.0000E+00  0.1873E+02  0.3674E+01  0.1962E+00  0.2442E+02
REACH    7        0    14  0.8570E+00  0.1989E+00  0.1989E+00  0.4621E-05  0.0000E+00  0.9126E+01  0.5899E+01  0.3432E+03  0.2458E+02  0.2458E+02  0.5429E+01  0.5427E+01  0.3459E+01  0.3458E+01  0.1105E-01  0.1534E-01  0.0000E+00  0.0000E+00  0.3855E-01  0.4010E-01  0.3492E-01  0.3452E-01  0.7640E+03  0.7627E+03  0.1977E+02  0.1607E+01  0.0000E+00  0.0000E+00  0.0000E+00  0.0000E+00  0.0000E+00  0.0000E+00  0.0000E+00  0.0000E+00  0.0000E+00  0.0000E+00  0.0000E+00  0.0000E+00  0.0000E+00  0.0000E+00  0.0000E+00  0.0000E+00  0.0000E+00  0.2805E+02  0.5467E+01  0.2012E+00  0.2442E+02
REACH    8        0    14  0.1082E+01  0.2502E+00  0.2501E+00  0.7819E-05  0.0000E+00  0.9467E+01  0.6031E+01  0.2791E+03  0.3029E+02  0.3028E+02  0.6688E+01  0.6684E+01  0.4395E+01  0.4395E+01  0.1564E-01  0.2464E-01  0.0000E+00  0.0000E+00  0.4496E-01  0.4822E-01  0.5068E-01  0.4990E-01  0.9745E+03  0.9717E+03  0.1471E+02  0.2018E+01  0.0000E+00  0.0000E+00  0.0000E+00  0.0000E+00  0.0000E+00  0.0000E+00  0.0000E+00  0.0000E+00  0.0000E+00  0.0000E+00  0.0000E+00  0.0000E+00  0.0000E+00  0.0000E+00  0.0000E+00  0.0000E+00  0.0000E+00  0.3470E+02  0.6732E+01  0.2034E+00  0.2442E+02
REACH    9        0    14  0.1363E+01  0.3149E+00  0.3149E+00  0.3423E-05  0.0000E+00  0.1203E+02  0.8305E+01  0.3053E+03  0.3910E+02  0.3909E+02  0.8630E+01  0.8628E+01  0.5628E+01  0.5627E+01  0.2853E-01  0.3265E-01  0.0000E+00  0.0000E+00  0.5538E-01  0.5687E-01  0.6206E-01  0.6172E-01  0.1267E+04  0.1265E+04  0.7708E+01  0.2536E+01  0.0000E+00  0.0000E+00  0.0000E+00  0.0000E+00  0.0000E+00  0.0000E+00  0.0000E+00  0.0000E+00  0.0000E+00  0.0000E+00  0.0000E+00  0.0000E+00  0.0000E+00  0.0000E+00  0.0000E+00  0.0000E+00  0.0000E+00  0.4475E+02  0.8685E+01  0.2069E+00  0.2442E+02
REACH    1        0    15  0.2442E+00  0.4495E-01  0.4494E-01  0.5026E-05  0.0000E+00  0.5479E-01  0.5479E-01  0.1411E+02  0.5168E+01  0.5165E+01  0.1142E+01  0.1141E+01  0.9282E+00  0.9281E+00  0.0000E+00  0.2495E-02  0.0000E+00  0.0000E+00  0.1578E-02  0.2471E-02  0.2315E-02  0.2218E-02  0.4578E+01  0.4556E+01  0.3219E+02  0.2462E+02  0.0000E+00  0.0000E+00  0.0000E+00  0.0000E+00  0.0000E+00  0.0000E+00  0.0000E+00  0.0000E+00  0.0000E+00  0.0000E+00  0.0000E+00  0.0000E+00  0.0000E+00  0.0000E+00  0.0000E+00  0.0000E+00  0.0000E+00  0.6096E+01  0.1144E+01  0.2390E+00  0.2461E+02
REACH    2        0    15  0.1348E+00  0.2490E-01  0.2490E-01  0.4129E-06  0.0000E+00  0.4546E-03  0.4546E-03  0.2113E+00  0.2870E+01  0.2869E+01  0.6332E+00  0.6331E+00  0.5180E+00  0.5179E+00  0.0000E+00  0.1890E-03  0.0000E+00  0.0000E+00  0.1447E-02  0.1515E-02  0.9623E-03  0.9568E-03  0.3619E-01  0.3616E-01  0.1788E+02  0.1738E+02  0.0000E+00  0.0000E+00  0.0000E+00  0.0000E+00  0.0000E+00  0.0000E+00  0.0000E+00  0.0000E+00  0.0000E+00  0.0000E+00  0.0000E+00  0.0000E+00  0.0000E+00  0.0000E+00  0.0000E+00  0.0000E+00  0.0000E+00  0.3387E+01  0.6346E+00  0.2407E+00  0.2461E+02
REACH    3        0    15  0.1273E+00  0.2340E-01  0.2340E-01  0.1485E-05  0.0000E+00  0.2000E-08  0.2000E-08  0.9894E-06  0.2527E+01  0.2526E+01  0.5568E+00  0.5565E+00  0.4694E+00  0.4693E+00  0.0000E+00  0.5307E-03  0.0000E+00  0.0000E+00  0.7734E-03  0.9610E-03  0.8379E-03  0.8191E-03  0.2207E-07  0.0000E+00  0.1682E+02  0.1639E+02  0.0000E+00  0.0000E+00  0.0000E+00  0.0000E+00  0.0000E+00  0.0000E+00  0.0000E+00  0.0000E+00  0.0000E+00  0.0000E+00  0.0000E+00  0.0000E+00  0.0000E+00  0.0000E+00  0.0000E+00  0.0000E+00  0.0000E+00  0.2996E+01  0.5575E+00  0.2322E+00  0.2461E+02
REACH    4        0    15  0.1895E+00  0.3515E-01  0.3515E-01  0.3593E-05  0.0000E+00  0.4566E-01  0.4566E-01  0.1503E+02  0.2713E+01  0.2712E+01  0.6039E+00  0.6035E+00  0.6438E+00  0.6438E+00  0.0000E+00  0.9904E-03  0.0000E+00  0.0000E+00  0.7826E-02  0.8174E-02  0.1347E-02  0.1296E-02  0.4191E+01  0.4176E+01  0.2459E+02  0.1847E+02  0.0000E+00  0.0000E+00  0.0000E+00  0.0000E+00  0.0000E+00  0.0000E+00  0.0000E+00  0.0000E+00  0.0000E+00  0.0000E+00  0.0000E+00  0.0000E+00  0.0000E+00  0.0000E+00  0.0000E+00  0.0000E+00  0.0000E+00  0.3357E+01  0.6117E+00  0.2120E+00  0.2461E+02
REACH    5        0    15  0.2556E+00  0.4646E-01  0.4646E-01  0.3993E-05  0.0000E+00  0.6149E-01  0.6149E-01  0.1532E+02  0.5433E+01  0.5431E+01  0.1196E+01  0.1195E+01  0.7531E+00  0.7531E+00  0.0000E+00  0.1693E-02  0.0000E+00  0.0000E+00  0.3580E-02  0.4179E-02  0.2229E-02  0.2154E-02  0.6058E+01  0.6040E+01  0.3328E+02  0.2376E+02  0.0000E+00  0.0000E+00  0.0000E+00  0.0000E+00  0.0000E+00  0.0000E+00  0.0000E+00  0.0000E+00  0.0000E+00  0.0000E+00  0.0000E+00  0.0000E+00  0.0000E+00  0.0000E+00  0.0000E+00  0.0000E+00  0.0000E+00  0.6185E+01  0.1200E+01  0.1876E+00  0.2461E+02
REACH    6        0    15  0.5361E+00  0.9762E-01  0.9761E-01  0.7096E-05  0.0000E+00  0.6161E-01  0.2276E+01  0.2698E+03  0.1052E+02  0.1052E+02  0.2317E+01  0.2316E+01  0.1741E+01  0.1741E+01  0.2224E-02  0.6431E-02  0.0000E+00  0.0000E+00  0.6041E-02  0.7547E-02  0.3841E-02  0.3728E-02  0.6056E+01  0.6032E+01  0.6011E+02  0.5886E+02  0.0000E+00  0.0000E+00  0.0000E+00  0.0000E+00  0.0000E+00  0.0000E+00  0.0000E+00  0.0000E+00  0.0000E+00  0.0000E+00  0.0000E+00  0.0000E+00  0.0000E+00  0.0000E+00  0.0000E+00  0.0000E+00  0.0000E+00  0.1226E+02  0.2323E+01  0.2064E+00  0.2461E+02
REACH    7        0    15  0.8570E+00  0.1566E+00  0.1566E+00  0.5366E-05  0.0000E+00  0.2425E+01  0.3657E+01  0.2702E+03  0.1578E+02  0.1577E+02  0.3492E+01  0.3490E+01  0.2880E+01  0.2880E+01  0.7422E-02  0.1097E-01  0.0000E+00  0.0000E+00  0.1829E-01  0.1957E-01  0.7436E-02  0.7329E-02  0.1860E+02  0.1856E+02  0.9396E+02  0.8236E+02  0.0000E+00  0.0000E+00  0.0000E+00  0.0000E+00  0.0000E+00  0.0000E+00  0.0000E+00  0.0000E+00  0.0000E+00  0.0000E+00  0.0000E+00  0.0000E+00  0.0000E+00  0.0000E+00  0.0000E+00  0.0000E+00  0.0000E+00  0.1867E+02  0.3510E+01  0.2128E+00  0.2461E+02
[...]
REACH    4        0   363  0.1895E+00  0.1275E-01  0.1274E-01  0.5552E-05  0.0000E+00  0.5000E-08  0.5000E-08  0.4541E-05  0.2661E-01  0.2658E-01  0.6120E-02  0.6110E-02  0.1120E+00  0.1119E+00  0.0000E+00  0.8726E-04  0.0000E+00  0.0000E+00  0.4307E-04  0.5694E-04  0.3676E-06  0.3310E-06  0.7010E-07  0.0000E+00  0.8999E+01  0.8748E+01  0.0000E+00  0.0000E+00  0.0000E+00  0.0000E+00  0.0000E+00  0.0000E+00  0.0000E+00  0.0000E+00  0.0000E+00  0.0000E+00  0.0000E+00  0.0000E+00  0.0000E+00  0.0000E+00  0.0000E+00  0.0000E+00  0.0000E+00  0.1386E+00  0.6167E-02  0.1016E+00  0.2562E+02
REACH    5        0   363  0.2556E+00  0.1728E-01  0.1727E-01  0.6267E-05  0.0000E+00  0.6353E-08  0.6353E-08  0.4257E-05  0.5343E-02  0.5337E-02  0.1229E-02  0.1227E-02  0.1673E+00  0.1673E+00  0.0000E+00  0.8399E-04  0.0000E+00  0.0000E+00  0.1521E-04  0.2450E-04  0.1573E-06  0.1438E-06  0.7206E-07  0.0000E+00  0.1219E+02  0.1186E+02  0.0000E+00  0.0000E+00  0.0000E+00  0.0000E+00  0.0000E+00  0.0000E+00  0.0000E+00  0.0000E+00  0.0000E+00  0.0000E+00  0.0000E+00  0.0000E+00  0.0000E+00  0.0000E+00  0.0000E+00  0.0000E+00  0.0000E+00  0.1727E+00  0.1252E-02  0.1121E+00  0.2562E+02
REACH    6        0   363  0.5361E+00  0.3680E-01  0.3679E-01  0.1091E-04  0.0000E+00  0.1527E-07  0.5195E+00  0.1634E+03  0.5340E-02  0.5334E-02  0.1228E-02  0.1226E-02  0.3341E+00  0.3340E+00  0.1079E-03  0.2571E-03  0.0000E+00  0.0000E+00  0.2654E-04  0.4249E-04  0.1445E-06  0.0000E+00  0.0000E+00  0.0000E+00  0.2547E+02  0.2525E+02  0.0000E+00  0.0000E+00  0.0000E+00  0.0000E+00  0.0000E+00  0.0000E+00  0.0000E+00  0.0000E+00  0.0000E+00  0.0000E+00  0.0000E+00  0.0000E+00  0.0000E+00  0.0000E+00  0.0000E+00  0.0000E+00  0.0000E+00  0.3396E+00  0.1268E-02  0.1051E+00  0.2562E+02
REACH    7        0   363  0.8570E+00  0.5842E-01  0.5841E-01  0.8129E-05  0.0000E+00  0.5195E+00  0.9598E+00  0.1902E+03  0.3788E-01  0.3786E-01  0.8939E-02  0.8932E-02  0.5407E+00  0.5406E+00  0.3444E-03  0.4687E-03  0.0000E+00  0.0000E+00  0.1662E-03  0.1823E-03  0.6716E-06  0.6476E-06  0.1391E-06  0.0000E+00  0.4027E+02  0.4010E+02  0.0000E+00  0.0000E+00  0.0000E+00  0.0000E+00  0.0000E+00  0.0000E+00  0.0000E+00  0.0000E+00  0.0000E+00  0.0000E+00  0.0000E+00  0.0000E+00  0.0000E+00  0.0000E+00  0.0000E+00  0.0000E+00  0.0000E+00  0.5790E+00  0.9114E-02  0.1071E+00  0.2562E+02
REACH    8        0   363  0.1082E+01  0.7399E-01  0.7398E-01  0.1355E-04  0.0000E+00  0.9598E+00  0.1033E+01  0.1616E+03  0.4081E-01  0.4078E-01  0.9709E-02  0.9697E-02  0.6852E+00  0.6851E+00  0.4754E-03  0.6830E-03  0.0000E+00  0.0000E+00  0.2033E-03  0.2306E-03  0.3868E-04  0.3685E-04  0.5999E-06  0.0000E+00  0.5091E+02  0.5078E+02  0.0000E+00  0.0000E+00  0.0000E+00  0.0000E+00  0.0000E+00  0.0000E+00  0.0000E+00  0.0000E+00  0.0000E+00  0.0000E+00  0.0000E+00  0.0000E+00  0.0000E+00  0.0000E+00  0.0000E+00  0.0000E+00  0.0000E+00  0.7266E+00  0.9928E-02  0.1072E+00  0.2562E+02
REACH    9        0   363  0.1363E+01  0.9344E-01  0.9343E-01  0.6034E-05  0.0000E+00  0.1033E+01  0.1415E+01  0.1753E+03  0.4178E-01  0.4176E-01  0.1005E-01  0.1004E-01  0.8561E+00  0.8561E+00  0.7755E-03  0.8674E-03  0.0000E+00  0.0000E+00  0.4591E-03  0.4707E-03  0.3763E-04  0.3699E-04  0.1324E-07  0.0000E+00  0.6419E+02  0.6413E+02  0.0000E+00  0.0000E+00  0.0000E+00  0.0000E+00  0.0000E+00  0.0000E+00  0.0000E+00  0.0000E+00  0.0000E+00  0.0000E+00  0.0000E+00  0.0000E+00  0.0000E+00  0.0000E+00  0.0000E+00  0.0000E+00  0.0000E+00  0.8987E+00  0.1052E-01  0.1060E+00  0.2562E+02
REACH    1        0   364  0.2442E+00  0.6061E-02  0.6052E-02  0.8667E-05  0.0000E+00  0.4805E-08  0.4805E-08  0.9189E-05  0.3428E-07  0.0000E+00  0.7527E-07  0.0000E+00  0.5098E-01  0.5091E-01  0.0000E+00  0.8626E-04  0.0000E+00  0.0000E+00  0.1402E-06  0.0000E+00  0.4170E-13  0.0000E+00  0.0000E+00  0.0000E+00  0.4278E+01  0.4154E+01  0.0000E+00  0.0000E+00  0.0000E+00  0.0000E+00  0.0000E+00  0.0000E+00  0.0000E+00  0.0000E+00  0.0000E+00  0.0000E+00  0.0000E+00  0.0000E+00  0.0000E+00  0.0000E+00  0.0000E+00  0.0000E+00  0.0000E+00  0.5100E-01  0.0000E+00  0.9736E-01  0.2562E+02
REACH    2        0   364  0.1348E+00  0.3281E-02  0.3280E-02  0.6396E-06  0.0000E+00  0.7874E-08  0.7874E-08  0.2779E-04  0.1349E-07  0.0000E+00  0.4044E-07  0.0000E+00  0.2723E-01  0.2723E-01  0.0000E+00  0.6002E-05  0.0000E+00  0.0000E+00  0.1362E-07  0.0000E+00  0.4176E-21  0.0000E+00  0.0000E+00  0.0000E+00  0.2315E+01  0.2251E+01  0.0000E+00  0.0000E+00  0.0000E+00  0.0000E+00  0.0000E+00  0.0000E+00  0.0000E+00  0.0000E+00  0.0000E+00  0.0000E+00  0.0000E+00  0.0000E+00  0.0000E+00  0.0000E+00  0.0000E+00  0.0000E+00  0.0000E+00  0.2723E-01  0.0000E+00  0.9608E-01  0.2562E+02
REACH    3        0   364  0.1273E+00  0.3178E-02  0.3175E-02  0.2568E-05  0.0000E+00  0.2000E-08  0.2000E-08  0.7290E-05  0.1273E-07  0.0000E+00  0.3820E-07  0.0000E+00  0.2587E-01  0.2585E-01  0.0000E+00  0.2387E-04  0.0000E+00  0.0000E+00  0.1275E-07  0.0000E+00  0.2244E-21  0.0000E+00  0.0000E+00  0.0000E+00  0.2243E+01  0.2180E+01  0.0000E+00  0.0000E+00  0.0000E+00  0.0000E+00  0.0000E+00  0.0000E+00  0.0000E+00  0.0000E+00  0.0000E+00  0.0000E+00  0.0000E+00  0.0000E+00  0.0000E+00  0.0000E+00  0.0000E+00  0.0000E+00  0.0000E+00  0.2587E-01  0.0000E+00  0.9421E-01  0.2562E+02
REACH    4        0   364  0.1895E+00  0.4389E-02  0.4382E-02  0.6585E-05  0.0000E+00  0.5000E-08  0.5000E-08  0.1321E-04  0.1895E-07  0.0000E+00  0.5685E-07  0.0000E+00  0.3851E-01  0.3845E-01  0.0000E+00  0.6382E-04  0.0000E+00  0.0000E+00  0.1904E-07  0.0000E+00  0.7326E-21  0.0000E+00  0.0000E+00  0.0000E+00  0.3097E+01  0.3008E+01  0.0000E+00  0.0000E+00  0.0000E+00  0.0000E+00  0.0000E+00  0.0000E+00  0.0000E+00  0.0000E+00  0.0000E+00  0.0000E+00  0.0000E+00  0.0000E+00  0.0000E+00  0.0000E+00  0.0000E+00  0.0000E+00  0.0000E+00  0.3851E-01  0.0000E+00  0.1016E+00  0.2562E+02
REACH    5        0   364  0.2556E+00  0.5973E-02  0.5965E-02  0.7596E-05  0.0000E+00  0.6353E-08  0.6353E-08  0.1233E-04  0.6928E-05  0.6910E-05  0.1522E-05  0.1517E-05  0.5757E-01  0.5750E-01  0.0000E+00  0.7586E-04  0.0000E+00  0.0000E+00  0.1707E-05  0.5114E-05  0.4963E-08  0.0000E+00  0.0000E+00  0.0000E+00  0.4216E+01  0.4095E+01  0.0000E+00  0.0000E+00  0.0000E+00  0.0000E+00  0.0000E+00  0.0000E+00  0.0000E+00  0.0000E+00  0.0000E+00  0.0000E+00  0.0000E+00  0.0000E+00  0.0000E+00  0.0000E+00  0.0000E+00  0.0000E+00  0.0000E+00  0.5758E-01  0.6631E-05  0.1116E+00  0.2562E+02
REACH    6        0   364  0.5361E+00  0.1317E-01  0.1316E-01  0.1291E-04  0.0000E+00  0.1527E-07  0.1431E+00  0.1259E+03  0.6940E-05  0.6926E-05  0.1567E-05  0.1563E-05  0.1158E+00  0.1157E+00  0.9973E-04  0.2348E-03  0.0000E+00  0.0000E+00  0.5135E-05  0.1539E-04  0.1306E-15  0.0000E+00  0.0000E+00  0.0000E+00  0.9117E+01  0.9030E+01  0.0000E+00  0.0000E+00  0.0000E+00  0.0000E+00  0.0000E+00  0.0000E+00  0.0000E+00  0.0000E+00  0.0000E+00  0.0000E+00  0.0000E+00  0.0000E+00  0.0000E+00  0.0000E+00  0.0000E+00  0.0000E+00  0.0000E+00  0.1159E+00  0.1695E-04  0.1018E+00  0.2562E+02
REACH    7        0   364  0.8570E+00  0.2081E-01  0.2080E-01  0.9946E-05  0.0000E+00  0.1431E+00  0.2568E+00  0.1429E+03  0.6947E-05  0.6940E-05  0.1603E-05  0.0000E+00  0.1904E+00  0.1903E+00  0.2986E-03  0.4046E-03  0.0000E+00  0.0000E+00  0.1540E-04  0.2605E-04  0.2738E-21  0.0000E+00  0.0000E+00  0.0000E+00  0.1435E+02  0.1428E+02  0.0000E+00  0.0000E+00  0.0000E+00  0.0000E+00  0.0000E+00  0.0000E+00  0.0000E+00  0.0000E+00  0.0000E+00  0.0000E+00  0.0000E+00  0.0000E+00  0.0000E+00  0.0000E+00  0.0000E+00  0.0000E+00  0.0000E+00  0.1908E+00  0.2605E-04  0.1059E+00  0.2562E+02
REACH    8        0   364  0.1082E+01  0.2655E-01  0.2653E-01  0.1686E-04  0.0000E+00  0.2568E+00  0.2315E+00  0.1010E+03  0.6953E-05  0.6942E-05  0.2721E-07  0.0000E+00  0.2416E+00  0.2414E+00  0.4106E-03  0.5878E-03  0.0000E+00  0.0000E+00  0.2669E-04  0.4453E-04  0.2247E-11  0.0000E+00  0.0000E+00  0.0000E+00  0.1827E+02  0.1821E+02  0.0000E+00  0.0000E+00  0.0000E+00  0.0000E+00  0.0000E+00  0.0000E+00  0.0000E+00  0.0000E+00  0.0000E+00  0.0000E+00  0.0000E+00  0.0000E+00  0.0000E+00  0.0000E+00  0.0000E+00  0.0000E+00  0.0000E+00  0.2420E+00  0.4453E-04  0.1053E+00  0.2562E+02
REACH    9        0   364  0.1363E+01  0.3359E-01  0.3358E-01  0.7592E-05  0.0000E+00  0.2315E+00  0.3166E+00  0.1091E+03  0.6945E-05  0.6941E-05  0.1114E-07  0.0000E+00  0.3010E+00  0.3010E+00  0.6741E-03  0.7545E-03  0.0000E+00  0.0000E+00  0.4521E-04  0.5332E-04  0.1880E-08  0.0000E+00  0.0000E+00  0.0000E+00  0.2307E+02  0.2305E+02  0.0000E+00  0.0000E+00  0.0000E+00  0.0000E+00  0.0000E+00  0.0000E+00  0.0000E+00  0.0000E+00  0.0000E+00  0.0000E+00  0.0000E+00  0.0000E+00  0.0000E+00  0.0000E+00  0.0000E+00  0.0000E+00  0.0000E+00  0.3017E+00  0.5332E-04  0.1037E+00  0.2562E+02
REACH    1        0   365  0.2442E+00  0.7728E-02  0.7723E-02  0.5295E-05  0.0000E+00  0.1825E-02  0.1825E-02  0.2736E+01  0.2445E-03  0.2441E-03  0.1225E-03  0.1222E-03  0.2131E-01  0.2129E-01  0.0000E+00  0.8117E-04  0.0000E+00  0.0000E+00  0.5034E-05  0.1331E-04  0.5225E-07  0.4188E-07  0.4308E-01  0.4268E-01  0.5541E+01  0.5325E+01  0.0000E+00  0.0000E+00  0.0000E+00  0.0000E+00  0.0000E+00  0.0000E+00  0.0000E+00  0.0000E+00  0.0000E+00  0.0000E+00  0.0000E+00  0.0000E+00  0.0000E+00  0.0000E+00  0.0000E+00  0.0000E+00  0.0000E+00  0.2162E-01  0.1355E-03  0.3191E-01  0.2472E+02
REACH    2        0   365  0.1348E+00  0.4266E-02  0.4265E-02  0.3907E-06  0.0000E+00  0.7874E-08  0.7874E-08  0.2137E-04  0.1348E-07  0.0000E+00  0.4044E-07  0.0000E+00  0.1146E-01  0.1146E-01  0.0000E+00  0.5629E-05  0.0000E+00  0.0000E+00  0.1409E-05  0.1971E-05  0.6866E-10  0.0000E+00  0.0000E+00  0.0000E+00  0.3061E+01  0.2981E+01  0.0000E+00  0.0000E+00  0.0000E+00  0.0000E+00  0.0000E+00  0.0000E+00  0.0000E+00  0.0000E+00  0.0000E+00  0.0000E+00  0.0000E+00  0.0000E+00  0.0000E+00  0.0000E+00  0.0000E+00  0.0000E+00  0.0000E+00  0.1147E-01  0.1971E-05  0.3110E-01  0.2472E+02
REACH    3        0   365  0.1273E+00  0.4035E-02  0.4034E-02  0.1567E-05  0.0000E+00  0.2000E-08  0.2000E-08  0.5739E-05  0.1273E-07  0.0000E+00  0.3820E-07  0.0000E+00  0.1080E-01  0.1079E-01  0.0000E+00  0.2239E-04  0.0000E+00  0.0000E+00  0.1275E-07  0.0000E+00  0.1359E-21  0.0000E+00  0.0000E+00  0.0000E+00  0.2895E+01  0.2819E+01  0.0000E+00  0.0000E+00  0.0000E+00  0.0000E+00  0.0000E+00  0.0000E+00  0.0000E+00  0.0000E+00  0.0000E+00  0.0000E+00  0.0000E+00  0.0000E+00  0.0000E+00  0.0000E+00  0.0000E+00  0.0000E+00  0.0000E+00  0.1082E-01  0.0000E+00  0.3097E-01  0.2472E+02
REACH    4        0   365  0.1895E+00  0.5963E-02  0.5959E-02  0.4013E-05  0.0000E+00  0.5274E-02  0.5274E-02  0.1024E+02  0.3110E-02  0.3105E-02  0.7154E-03  0.7138E-03  0.1653E-01  0.1652E-01  0.0000E+00  0.6260E-04  0.0000E+00  0.0000E+00  0.4756E-05  0.1178E-04  0.3617E-07  0.2928E-07  0.2446E+00  0.2424E+00  0.4275E+01  0.3769E+01  0.0000E+00  0.0000E+00  0.0000E+00  0.0000E+00  0.0000E+00  0.0000E+00  0.0000E+00  0.0000E+00  0.0000E+00  0.0000E+00  0.0000E+00  0.0000E+00  0.0000E+00  0.0000E+00  0.0000E+00  0.0000E+00  0.0000E+00  0.1969E-01  0.7255E-03  0.3209E-01  0.2472E+02
REACH    5        0   365  0.2556E+00  0.7645E-02  0.7641E-02  0.4637E-05  0.0000E+00  0.6949E-02  0.6949E-02  0.1053E+02  0.6320E-03  0.6311E-03  0.1455E-03  0.1452E-03  0.2321E-01  0.2319E-01  0.0000E+00  0.7169E-04  0.0000E+00  0.0000E+00  0.2345E-05  0.7031E-05  0.6999E-07  0.5764E-07  0.4426E+00  0.4389E+00  0.5483E+01  0.4639E+01  0.0000E+00  0.0000E+00  0.0000E+00  0.0000E+00  0.0000E+00  0.0000E+00  0.0000E+00  0.0000E+00  0.0000E+00  0.0000E+00  0.0000E+00  0.0000E+00  0.0000E+00  0.0000E+00  0.0000E+00  0.0000E+00  0.0000E+00  0.2390E-01  0.1523E-03  0.3513E-01  0.2472E+02
REACH    6        0   365  0.5361E+00  0.1659E-01  0.1658E-01  0.8448E-05  0.0000E+00  0.6949E-02  0.1458E+00  0.1018E+03  0.6311E-03  0.6300E-03  0.1453E-03  0.1449E-03  0.4778E-01  0.4776E-01  0.9408E-04  0.2263E-03  0.0000E+00  0.0000E+00  0.7500E-05  0.2094E-04  0.5767E-07  0.0000E+00  0.4389E+00  0.4343E+00  0.1098E+02  0.1086E+02  0.0000E+00  0.0000E+00  0.0000E+00  0.0000E+00  0.0000E+00  0.0000E+00  0.0000E+00  0.0000E+00  0.0000E+00  0.0000E+00  0.0000E+00  0.0000E+00  0.0000E+00  0.0000E+00  0.0000E+00  0.0000E+00  0.0000E+00  0.4861E-01  0.1659E-03  0.3334E-01  0.2472E+02
REACH    7        0   365  0.8570E+00  0.2670E-01  0.2669E-01  0.6394E-05  0.0000E+00  0.1561E+00  0.2744E+00  0.1190E+03  0.4966E-02  0.4962E-02  0.1218E-02  0.1217E-02  0.8243E-01  0.8241E-01  0.2889E-03  0.3936E-03  0.0000E+00  0.0000E+00  0.5160E-04  0.6286E-04  0.1633E-06  0.1512E-06  0.1037E+01  0.1032E+01  0.1761E+02  0.1698E+02  0.0000E+00  0.0000E+00  0.0000E+00  0.0000E+00  0.0000E+00  0.0000E+00  0.0000E+00  0.0000E+00  0.0000E+00  0.0000E+00  0.0000E+00  0.0000E+00  0.0000E+00  0.0000E+00  0.0000E+00  0.0000E+00  0.0000E+00  0.8776E-01  0.1279E-02  0.3573E-01  0.2472E+02
REACH    8        0   365  0.1082E+01  0.3387E-01  0.3386E-01  0.1031E-04  0.0000E+00  0.3087E+00  0.3771E+00  0.1289E+03  0.6182E-02  0.6176E-02  0.1544E-02  0.1542E-02  0.1055E+00  0.1054E+00  0.3992E-03  0.5698E-03  0.0000E+00  0.0000E+00  0.7078E-04  0.8915E-04  0.4248E-04  0.3845E-04  0.9012E+01  0.8953E+01  0.2195E+02  0.1243E+02  0.0000E+00  0.0000E+00  0.0000E+00  0.0000E+00  0.0000E+00  0.0000E+00  0.0000E+00  0.0000E+00  0.0000E+00  0.0000E+00  0.0000E+00  0.0000E+00  0.0000E+00  0.0000E+00  0.0000E+00  0.0000E+00  0.0000E+00  0.1122E+00  0.1631E-02  0.3604E-01  0.2472E+02
REACH    9        0   365  0.1363E+01  0.4279E-01  0.4279E-01  0.4646E-05  0.0000E+00  0.3789E+00  0.5140E+00  0.1390E+03  0.6420E-02  0.6417E-02  0.1664E-02  0.1663E-02  0.1309E+00  0.1309E+00  0.6509E-03  0.7281E-03  0.0000E+00  0.0000E+00  0.2207E-03  0.2289E-03  0.3933E-04  0.3799E-04  0.8996E+01  0.8975E+01  0.1862E+02  0.1797E+02  0.0000E+00  0.0000E+00  0.0000E+00  0.0000E+00  0.0000E+00  0.0000E+00  0.0000E+00  0.0000E+00  0.0000E+00  0.0000E+00  0.0000E+00  0.0000E+00  0.0000E+00  0.0000E+00  0.0000E+00  0.0000E+00  0.0000E+00  0.1381E+00  0.1892E-02  0.3541E-01  0.2472E+02
REACH    1        0   366  0.2442E+00  0.7446E-01  0.7446E-01  0.4059E-05  0.0000E+00  0.1278E+02  0.1278E+02  0.1987E+04  0.1043E+02  0.1043E+02  0.2279E+01  0.2278E+01  0.6456E+00  0.6456E+00  0.0000E+00  0.3701E-02  0.0000E+00  0.0000E+00  0.7278E-02  0.8598E-02  0.6999E-01  0.6812E-01  0.1733E+04  0.1727E+04  0.3333E+02  0.5955E+00  0.0000E+00  0.0000E+00  0.0000E+00  0.0000E+00  0.0000E+00  0.0000E+00  0.0000E+00  0.0000E+00  0.0000E+00  0.0000E+00  0.0000E+00  0.0000E+00  0.0000E+00  0.0000E+00  0.0000E+00  0.0000E+00  0.0000E+00  0.1108E+02  0.2286E+01  0.1003E+00  0.2401E+02
REACH    2        0   366  0.1348E+00  0.4168E-01  0.4168E-01  0.1739E-05  0.0000E+00  0.6875E+01  0.6875E+01  0.1909E+04  0.6240E+01  0.6239E+01  0.1363E+01  0.1363E+01  0.3467E+00  0.3467E+00  0.0000E+00  0.6525E-03  0.0000E+00  0.0000E+00  0.4558E-02  0.4792E-02  0.4705E-01  0.4672E-01  0.9544E+03  0.9534E+03  0.1796E+02  0.3333E+00  0.0000E+00  0.0000E+00  0.0000E+00  0.0000E+00  0.0000E+00  0.0000E+00  0.0000E+00  0.0000E+00  0.0000E+00  0.0000E+00  0.0000E+00  0.0000E+00  0.0000E+00  0.0000E+00  0.0000E+00  0.0000E+00  0.0000E+00  0.6586E+01  0.1368E+01  0.9627E-01  0.2401E+02
REACH    3        0   366  0.1273E+00  0.3873E-01  0.3873E-01  0.1245E-05  0.0000E+00  0.5024E+01  0.5024E+01  0.1502E+04  0.5956E+01  0.5955E+01  0.1291E+01  0.1291E+01  0.3306E+00  0.3306E+00  0.0000E+00  0.9772E-03  0.0000E+00  0.0000E+00  0.4090E-02  0.4436E-02  0.4094E-01  0.4034E-01  0.7205E+03  0.7194E+03  0.1741E+02  0.3097E+00  0.0000E+00  0.0000E+00  0.0000E+00  0.0000E+00  0.0000E+00  0.0000E+00  0.0000E+00  0.0000E+00  0.0000E+00  0.0000E+00  0.0000E+00  0.0000E+00  0.0000E+00  0.0000E+00  0.0000E+00  0.0000E+00  0.0000E+00  0.6286E+01  0.1295E+01  0.9880E-01  0.2401E+02
REACH    4        0   366  0.1895E+00  0.6099E-01  0.6098E-01  0.3233E-05  0.0000E+00  0.1137E+02  0.1137E+02  0.2157E+04  0.1155E+02  0.1155E+02  0.2613E+01  0.2611E+01  0.4303E+00  0.4303E+00  0.0000E+00  0.3834E-02  0.0000E+00  0.0000E+00  0.9180E-02  0.1060E-01  0.1298E+00  0.1265E+00  0.1787E+04  0.1781E+04  0.2247E+02  0.4877E+00  0.0000E+00  0.0000E+00  0.0000E+00  0.0000E+00  0.0000E+00  0.0000E+00  0.0000E+00  0.0000E+00  0.0000E+00  0.0000E+00  0.0000E+00  0.0000E+00  0.0000E+00  0.0000E+00  0.0000E+00  0.0000E+00  0.0000E+00  0.1198E+02  0.2622E+01  0.8166E-01  0.2401E+02
REACH    5        0   366  0.2556E+00  0.8050E-01  0.8049E-01  0.3236E-05  0.0000E+00  0.9838E+01  0.9838E+01  0.1415E+04  0.1421E+02  0.1421E+02  0.3105E+01  0.3104E+01  0.7141E+00  0.7141E+00  0.0000E+00  0.3213E-02  0.0000E+00  0.0000E+00  0.1023E-01  0.1138E-01  0.1191E+00  0.1167E+00  0.1566E+04  0.1563E+04  0.3266E+02  0.6437E+00  0.0000E+00  0.0000E+00  0.0000E+00  0.0000E+00  0.0000E+00  0.0000E+00  0.0000E+00  0.0000E+00  0.0000E+00  0.0000E+00  0.0000E+00  0.0000E+00  0.0000E+00  0.0000E+00  0.0000E+00  0.0000E+00  0.0000E+00  0.1493E+02  0.3115E+01  0.1027E+00  0.2401E+02
REACH    6        0   366  0.5361E+00  0.1647E+00  0.1647E+00  0.5854E-05  0.0000E+00  0.2015E+02  0.4555E+01  0.3201E+03  0.2678E+02  0.2677E+02  0.5829E+01  0.5826E+01  0.1440E+01  0.1440E+01  0.4190E-02  0.1257E-01  0.0000E+00  0.0000E+00  0.2130E-01  0.2438E-01  0.2003E+00  0.1965E+00  0.3032E+04  0.3023E+04  0.2211E+02  0.1317E+01  0.0000E+00  0.0000E+00  0.0000E+00  0.0000E+00  0.0000E+00  0.0000E+00  0.0000E+00  0.0000E+00  0.0000E+00  0.0000E+00  0.0000E+00  0.0000E+00  0.0000E+00  0.0000E+00  0.0000E+00  0.0000E+00  0.0000E+00  0.2822E+02  0.5850E+01  0.1012E+00  0.2401E+02
REACH    7        0   366  0.8570E+00  0.2660E+00  0.2660E+00  0.4316E-05  0.0000E+00  0.2222E+02  0.7828E+01  0.3406E+03  0.4415E+02  0.4414E+02  0.9758E+01  0.9755E+01  0.2234E+01  0.2234E+01  0.1640E-01  0.2394E-01  0.0000E+00  0.0000E+00  0.4437E-01  0.4711E-01  0.3726E+00  0.3693E+00  0.5737E+04  0.5728E+04  0.1860E+02  0.2128E+01  0.0000E+00  0.0000E+00  0.0000E+00  0.0000E+00  0.0000E+00  0.0000E+00  0.0000E+00  0.0000E+00  0.0000E+00  0.0000E+00  0.0000E+00  0.0000E+00  0.0000E+00  0.0000E+00  0.0000E+00  0.0000E+00  0.0000E+00  0.4640E+02  0.9802E+01  0.9719E-01  0.2401E+02
REACH    8        0   366  0.1082E+01  0.3331E+00  0.3331E+00  0.6989E-05  0.0000E+00  0.1626E+02  0.9433E+01  0.3278E+03  0.5314E+02  0.5312E+02  0.1172E+02  0.1171E+02  0.2836E+01  0.2836E+01  0.2459E-01  0.3770E-01  0.0000E+00  0.0000E+00  0.5587E-01  0.6063E-01  0.4253E+00  0.4203E+00  0.6948E+04  0.6932E+04  0.1542E+02  0.2664E+01  0.0000E+00  0.0000E+00  0.0000E+00  0.0000E+00  0.0000E+00  0.0000E+00  0.0000E+00  0.0000E+00  0.0000E+00  0.0000E+00  0.0000E+00  0.0000E+00  0.0000E+00  0.0000E+00  0.0000E+00  0.0000E+00  0.0000E+00  0.5599E+02  0.1177E+02  0.9855E-01  0.2401E+02
REACH    9        0   366  0.1363E+01  0.4183E+00  0.4183E+00  0.3139E-05  0.0000E+00  0.2284E+02  0.1159E+02  0.3206E+03  0.6477E+02  0.6476E+02  0.1425E+02  0.1425E+02  0.3572E+01  0.3571E+01  0.4140E-01  0.4774E-01  0.0000E+00  0.0000E+00  0.7289E-01  0.7519E-01  0.4969E+00  0.4948E+00  0.8751E+04  0.8743E+04  0.8682E+01  0.3345E+01  0.0000E+00  0.0000E+00  0.0000E+00  0.0000E+00  0.0000E+00  0.0000E+00  0.0000E+00  0.0000E+00  0.0000E+00  0.0000E+00  0.0000E+00  0.0000E+00  0.0000E+00  0.0000E+00  0.0000E+00  0.0000E+00  0.0000E+00  0.6838E+02  0.1432E+02  0.9883E-01  0.2401E+02
