1
    SWAT Dec 23 2016    VER 2016/Rev 664                                                                 0/ 0/   0      0: 0: 0

    General Input/Output section (file.cio):                                        
    2/12/2020 14:35:46 QSWAT Workflow v1.5.2                                        
                                                                                    


       SUB      GIS  MON   AREAkm2  PRECIPmm SNOMELTmm     PETmm      ETmm      SWmm    PERCmm    SURQmm    GW_Qmm    WYLDmm  SYLDt/ha ORGNkg/ha ORGPkg/haNSURQkg/ha SOLPkg/ha SEDPkg/ha LAT Q(mm)LATNO3kg/hGWNO3kg/haCHOLAmic/LCBODU mg/L DOXQ mg/L TNO3kg/ha   QTILEmm TVAPkg/ha
BIGSUB   1        0    1.24419E+00 0.269E+02 0.000E+00 0.233E+01 0.231E+01 0.111E+03 0.156E-01 0.325E+01 0.165E+00 0.142E+02 0.382E+00 0.668E+00 0.818E-01 0.356E-03 0.245E-03 0.657E-01 0.108E+02 0.103E-01 0.349E-04 .22190E-02 0.278E+02 0.921E+00 0.000E+00 0.000E+00 0.000E+00
BIGSUB   2        0    1.13482E+00 0.269E+02 0.000E+00 0.233E+01 0.229E+01 0.105E+03 0.505E-01 0.365E+01 0.115E+00 0.145E+02 0.364E+00 0.654E+00 0.800E-01 0.511E-03 0.352E-03 0.643E-01 0.107E+02 0.107E-01 0.254E-04 .20430E-02 0.262E+02 0.926E+00 0.000E+00 0.000E+00 0.000E+00
BIGSUB   3        0    1.12733E+00 0.269E+02 0.000E+00 0.233E+01 0.231E+01 0.111E+03 0.000E+00 0.318E+01 0.175E+00 0.142E+02 0.285E+00 0.583E+00 0.712E-01 0.314E-03 0.235E-03 0.571E-01 0.108E+02 0.102E-01 0.372E-04 .17878E-02 0.216E+02 0.924E+00 0.000E+00 0.000E+00 0.000E+00
BIGSUB   4        0    1.18951E+00 0.269E+02 0.000E+00 0.233E+01 0.217E+01 0.956E+02 0.516E-02 0.552E+01 0.415E-01 0.156E+02 0.304E+00 0.467E+00 0.573E-01 0.177E-02 0.111E-02 0.461E-01 0.100E+02 0.151E-01 0.940E-05 .16661E-02 0.211E+02 0.893E+00 0.000E+00 0.000E+00 0.000E+00
BIGSUB   5        0    1.25558E+00 0.269E+02 0.000E+00 0.233E+01 0.229E+01 0.974E+02 0.441E-01 0.422E+01 0.421E-01 0.147E+02 0.259E+00 0.588E+00 0.719E-01 0.612E-03 0.439E-03 0.575E-01 0.104E+02 0.124E-01 0.940E-05 .21192E-02 0.222E+02 0.893E+00 0.000E+00 0.000E+00 0.000E+00
BIGSUB   6        0    1.15319E+00 0.269E+02 0.000E+00 0.233E+01 0.231E+01 0.119E+03 0.133E+00 0.284E+01 0.343E+00 0.139E+02 0.246E+00 0.506E+00 0.618E-01 0.302E-03 0.232E-03 0.495E-01 0.107E+02 0.107E-01 0.853E-04 .15241E-02 0.184E+02 0.931E+00 0.000E+00 0.000E+00 0.000E+00
BIGSUB   7        0    1.13143E+00 0.269E+02 0.000E+00 0.233E+01 0.227E+01 0.113E+03 0.384E+00 0.410E+01 0.235E+00 0.145E+02 0.330E+00 0.593E+00 0.733E-01 0.952E-03 0.609E-03 0.589E-01 0.101E+02 0.123E-01 0.110E-03 .28128E-02 0.273E+02 0.887E+00 0.000E+00 0.000E+00 0.000E+00
BIGSUB   8        0    1.90085E-01 0.269E+02 0.000E+00 0.233E+01 0.230E+01 0.152E+03 0.313E+00 0.237E+01 0.592E+00 0.133E+02 0.126E+00 0.283E+00 0.348E-01 0.438E-03 0.230E-03 0.277E-01 0.103E+02 0.110E-01 0.149E-03 .38893E-02 0.192E+02 0.918E+00 0.000E+00 0.000E+00 0.000E+00
BIGSUB   9        0    1.37142E-01 0.269E+02 0.000E+00 0.233E+01 0.230E+01 0.127E+03 0.917E+00 0.378E+01 0.698E+00 0.139E+02 0.119E+00 0.312E+00 0.381E-01 0.347E-03 0.515E-03 0.302E-01 0.941E+01 0.124E-01 0.198E-03 .12877E-02 0.100E+02 0.971E+00 0.000E+00 0.000E+00 0.000E+00
BIGSUB   1        0    2.24419E+00 0.100E+01 0.000E+00 0.390E+01 0.308E+01 0.109E+03 0.265E-04 0.689E-03 0.164E+00 0.388E+01 0.197E-09 0.100E-08 0.100E-08 0.351E-07 0.180E-06 0.200E-08 0.371E+01 0.354E-02 0.338E-04 .26664E-10 0.000E+00 0.322E+00 0.000E+00 0.000E+00 0.000E+00
BIGSUB   2        0    2.13482E+00 0.100E+01 0.000E+00 0.390E+01 0.306E+01 0.103E+03 0.254E-03 0.681E-04 0.115E+00 0.380E+01 0.584E-09 0.100E-08 0.100E-08 0.475E-08 0.201E-07 0.200E-08 0.368E+01 0.370E-02 0.247E-04 .26279E-13 0.000E+00 0.315E+00 0.000E+00 0.000E+00 0.000E+00
BIGSUB   3        0    2.12733E+00 0.100E+01 0.000E+00 0.390E+01 0.308E+01 0.109E+03 0.000E+00 0.100E-05 0.174E+00 0.390E+01 0.157E-09 0.100E-08 0.100E-08 0.100E-08 0.100E-08 0.200E-08 0.372E+01 0.352E-02 0.360E-04 .54072E-23 0.000E+00 0.324E+00 0.000E+00 0.000E+00 0.000E+00
BIGSUB   4        0    2.18951E+00 0.100E+01 0.000E+00 0.389E+01 0.298E+01 0.937E+02 0.000E+00 0.143E-05 0.412E-01 0.349E+01 0.264E-09 0.206E-07 0.364E-08 0.116E-08 0.115E-08 0.400E-08 0.344E+01 0.519E-02 0.912E-05 .33668E-16 0.000E+00 0.289E+00 0.000E+00 0.000E+00 0.000E+00
BIGSUB   5        0    2.25558E+00 0.100E+01 0.000E+00 0.390E+01 0.306E+01 0.954E+02 0.150E-04 0.947E-03 0.418E-01 0.362E+01 0.249E-09 0.120E-04 0.147E-05 0.476E-07 0.238E-06 0.112E-05 0.357E+01 0.425E-02 0.916E-05 .90283E-09 0.000E+00 0.300E+00 0.000E+00 0.000E+00 0.000E+00
BIGSUB   6        0    2.15319E+00 0.100E+01 0.000E+00 0.390E+01 0.310E+01 0.117E+03 0.763E-03 0.248E-03 0.340E+00 0.403E+01 0.451E-09 0.528E-05 0.671E-06 0.224E-07 0.651E-07 0.516E-06 0.368E+01 0.367E-02 0.827E-04 .19125E-09 0.000E+00 0.335E+00 0.000E+00 0.000E+00 0.000E+00
BIGSUB   7        0    2.13143E+00 0.100E+01 0.000E+00 0.390E+01 0.306E+01 0.111E+03 0.000E+00 0.363E-05 0.234E+00 0.377E+01 0.837E-09 0.194E-06 0.274E-07 0.182E-08 0.171E-08 0.235E-07 0.353E+01 0.439E-02 0.107E-03 .10930E-17 0.000E+00 0.313E+00 0.000E+00 0.000E+00 0.000E+00
BIGSUB   8        0    2.90085E-01 0.100E+01 0.000E+00 0.390E+01 0.315E+01 0.149E+03 0.205E-02 0.427E-03 0.587E+00 0.416E+01 0.115E-08 0.409E-06 0.505E-07 0.253E-07 0.120E-06 0.418E-07 0.355E+01 0.384E-02 0.145E-03 .41085E-12 0.000E+00 0.346E+00 0.000E+00 0.000E+00 0.000E+00
BIGSUB   9        0    2.37142E-01 0.100E+01 0.000E+00 0.390E+01 0.318E+01 0.125E+03 0.174E-02 0.460E-02 0.693E+00 0.397E+01 0.215E-08 0.101E-06 0.132E-07 0.295E-07 0.850E-06 0.112E-07 0.325E+01 0.430E-02 0.193E-03 .10834E-08 0.000E+00 0.330E+00 0.000E+00 0.000E+00 0.000E+00
BIGSUB   1        0    3.24419E+00 0.155E+02 0.000E+00 0.472E+01 0.393E+01 0.110E+03 0.123E+00 0.492E+00 0.163E+00 0.822E+01 0.567E-01 0.966E-01 0.118E-01 0.131E-03 0.373E-04 0.952E-02 0.755E+01 0.103E-01 0.328E-04 .46584E-04 0.136E+01 0.635E+00 0.000E+00 0.000E+00 0.000E+00
BIGSUB   2        0    3.13482E+00 0.155E+02 0.000E+00 0.472E+01 0.391E+01 0.105E+03 0.346E-01 0.587E+00 0.114E+00 0.823E+01 0.529E-01 0.935E-01 0.114E-01 0.211E-03 0.643E-04 0.919E-02 0.753E+01 0.102E-01 0.240E-04 .23263E-04 0.107E+01 0.635E+00 0.000E+00 0.000E+00 0.000E+00
BIGSUB   3        0    3.12733E+00 0.155E+02 0.000E+00 0.471E+01 0.393E+01 0.110E+03 0.183E+00 0.461E+00 0.172E+00 0.823E+01 0.411E-01 0.821E-01 0.100E-01 0.960E-04 0.322E-04 0.805E-02 0.759E+01 0.105E-01 0.350E-04 .19878E-04 0.876E+00 0.639E+00 0.000E+00 0.000E+00 0.000E+00
BIGSUB   4        0    3.18951E+00 0.155E+02 0.000E+00 0.471E+01 0.376E+01 0.949E+02 0.356E-02 0.123E+01 0.408E-01 0.853E+01 0.461E-01 0.700E-01 0.860E-02 0.970E-03 0.271E-03 0.694E-02 0.726E+01 0.137E-01 0.884E-05 .49640E-04 0.112E+01 0.632E+00 0.000E+00 0.000E+00 0.000E+00
BIGSUB   5        0    3.25558E+00 0.155E+02 0.000E+00 0.471E+01 0.390E+01 0.968E+02 0.243E-01 0.726E+00 0.415E-01 0.818E+01 0.406E-01 0.898E-01 0.110E-01 0.268E-03 0.849E-04 0.879E-02 0.740E+01 0.110E-01 0.894E-05 .58414E-04 0.125E+01 0.620E+00 0.000E+00 0.000E+00 0.000E+00
BIGSUB   6        0    3.15319E+00 0.155E+02 0.000E+00 0.472E+01 0.393E+01 0.118E+03 0.644E+00 0.406E+00 0.337E+00 0.828E+01 0.352E-01 0.696E-01 0.851E-02 0.986E-04 0.324E-04 0.683E-02 0.752E+01 0.114E-01 0.809E-04 .17407E-04 0.749E+00 0.648E+00 0.000E+00 0.000E+00 0.000E+00
BIGSUB   7        0    3.13143E+00 0.155E+02 0.000E+00 0.472E+01 0.388E+01 0.113E+03 0.320E+00 0.808E+00 0.233E+00 0.821E+01 0.535E-01 0.947E-01 0.118E-01 0.511E-03 0.138E-03 0.951E-02 0.716E+01 0.113E-01 0.106E-03 .13878E-03 0.203E+01 0.617E+00 0.000E+00 0.000E+00 0.000E+00
BIGSUB   8        0    3.90085E-01 0.155E+02 0.000E+00 0.472E+01 0.395E+01 0.151E+03 0.794E+00 0.634E+00 0.583E+00 0.827E+01 0.335E-01 0.582E-01 0.718E-02 0.303E-03 0.514E-04 0.576E-02 0.702E+01 0.113E-01 0.142E-03 .11770E-02 0.602E+01 0.627E+00 0.000E+00 0.000E+00 0.000E+00
BIGSUB   9        0    3.37142E-01 0.155E+02 0.000E+00 0.472E+01 0.400E+01 0.125E+03 0.136E+01 0.110E+01 0.689E+00 0.833E+01 0.176E-01 0.459E-01 0.561E-02 0.128E-03 0.172E-03 0.445E-02 0.651E+01 0.114E-01 0.189E-03 .50519E-04 0.550E+00 0.654E+00 0.000E+00 0.000E+00 0.000E+00
BIGSUB   1        0    4.24419E+00 0.640E+01 0.000E+00 0.573E+01 0.454E+01 0.109E+03 0.205E-02 0.115E-02 0.161E+00 0.458E+01 0.197E-09 0.940E-04 0.119E-04 0.216E-05 0.189E-06 0.937E-05 0.441E+01 0.423E-02 0.317E-04 .42864E-08 0.414E-09 0.375E+00 0.000E+00 0.000E+00 0.000E+00
BIGSUB   2        0    4.13482E+00 0.640E+01 0.000E+00 0.573E+01 0.452E+01 0.104E+03 0.715E-02 0.559E-04 0.113E+00 0.455E+01 0.584E-09 0.100E-08 0.100E-08 0.103E-06 0.202E-07 0.200E-08 0.443E+01 0.428E-02 0.233E-04 .24590E-13 0.000E+00 0.372E+00 0.000E+00 0.000E+00 0.000E+00
BIGSUB   3        0    4.12733E+00 0.640E+01 0.000E+00 0.573E+01 0.455E+01 0.109E+03 0.000E+00 0.100E-05 0.171E+00 0.460E+01 0.157E-09 0.100E-08 0.100E-08 0.100E-08 0.100E-08 0.200E-08 0.442E+01 0.428E-02 0.339E-04 .37955E-23 0.000E+00 0.376E+00 0.000E+00 0.000E+00 0.000E+00
BIGSUB   4        0    4.18951E+00 0.640E+01 0.000E+00 0.574E+01 0.436E+01 0.940E+02 0.954E-03 0.704E-03 0.404E-01 0.444E+01 0.264E-09 0.161E-03 0.196E-04 0.732E-06 0.388E-07 0.161E-04 0.440E+01 0.624E-02 0.857E-05 .20834E-06 0.200E-08 0.363E+00 0.000E+00 0.000E+00 0.000E+00
BIGSUB   5        0    4.25558E+00 0.640E+01 0.000E+00 0.573E+01 0.452E+01 0.960E+02 0.574E-02 0.137E-02 0.412E-01 0.439E+01 0.249E-09 0.221E-03 0.271E-04 0.110E-05 0.139E-06 0.222E-04 0.434E+01 0.462E-02 0.871E-05 .28524E-06 0.153E-08 0.359E+00 0.000E+00 0.000E+00 0.000E+00
BIGSUB   6        0    4.15319E+00 0.640E+01 0.000E+00 0.573E+01 0.455E+01 0.117E+03 0.219E-01 0.425E-04 0.335E+00 0.469E+01 0.451E-09 0.440E-06 0.605E-07 0.271E-07 0.126E-07 0.485E-07 0.434E+01 0.471E-02 0.789E-04 .60682E-12 0.000E+00 0.384E+00 0.000E+00 0.000E+00 0.000E+00
BIGSUB   7        0    4.13143E+00 0.640E+01 0.000E+00 0.573E+01 0.449E+01 0.112E+03 0.777E-01 0.310E-02 0.232E+00 0.450E+01 0.837E-09 0.297E-03 0.364E-04 0.333E-05 0.308E-06 0.298E-04 0.426E+01 0.510E-02 0.104E-03 .60777E-06 0.455E-08 0.368E+00 0.000E+00 0.000E+00 0.000E+00
BIGSUB   8        0    4.90085E-01 0.640E+01 0.000E+00 0.573E+01 0.457E+01 0.150E+03 0.370E-01 0.876E-01 0.579E+00 0.469E+01 0.115E-08 0.557E-02 0.682E-03 0.798E-04 0.574E-05 0.548E-03 0.400E+01 0.485E-02 0.138E-03 .99058E-04 0.472E-07 0.384E+00 0.000E+00 0.000E+00 0.000E+00
BIGSUB   9        0    4.37142E-01 0.640E+01 0.000E+00 0.572E+01 0.464E+01 0.124E+03 0.134E+00 0.181E+00 0.685E+00 0.464E+01 0.215E-08 0.288E-07 0.438E-08 0.641E-05 0.331E-04 0.453E-08 0.374E+01 0.506E-02 0.185E-03 .24763E-06 0.000E+00 0.379E+00 0.000E+00 0.000E+00 0.000E+00
BIGSUB   1        0    5.24419E+00 0.257E+02 0.000E+00 0.573E+01 0.456E+01 0.110E+03 0.677E+00 0.315E+01 0.160E+00 0.155E+02 0.682E+00 0.101E+01 0.124E+00 0.321E-03 0.230E-03 0.995E-01 0.122E+02 0.215E-01 0.314E-04 .27428E-02 0.385E+02 0.102E+01 0.000E+00 0.000E+00 0.000E+00
BIGSUB   2        0    5.13482E+00 0.257E+02 0.000E+00 0.573E+01 0.454E+01 0.105E+03 0.466E+00 0.353E+01 0.112E+00 0.157E+02 0.652E+00 0.996E+00 0.122E+00 0.447E-03 0.332E-03 0.978E-01 0.120E+02 0.212E-01 0.231E-04 .25433E-02 0.365E+02 0.101E+01 0.000E+00 0.000E+00 0.000E+00
BIGSUB   3        0    5.12733E+00 0.257E+02 0.000E+00 0.574E+01 0.457E+01 0.110E+03 0.715E+00 0.308E+01 0.170E+00 0.155E+02 0.511E+00 0.888E+00 0.108E+00 0.284E-03 0.222E-03 0.870E-01 0.122E+02 0.212E-01 0.336E-04 .22289E-02 0.300E+02 0.102E+01 0.000E+00 0.000E+00 0.000E+00
BIGSUB   4        0    5.18951E+00 0.257E+02 0.000E+00 0.574E+01 0.437E+01 0.952E+02 0.169E+00 0.528E+01 0.402E-01 0.165E+02 0.543E+00 0.709E+00 0.870E-01 0.149E-02 0.104E-02 0.701E-01 0.111E+02 0.233E-01 0.847E-05 .20624E-02 0.295E+02 0.936E+00 0.000E+00 0.000E+00 0.000E+00
BIGSUB   5        0    5.25558E+00 0.257E+02 0.000E+00 0.574E+01 0.454E+01 0.978E+02 0.103E+00 0.411E+01 0.411E-01 0.156E+02 0.465E+00 0.903E+00 0.110E+00 0.520E-03 0.416E-03 0.883E-01 0.114E+02 0.182E-01 0.859E-05 .27463E-02 0.317E+02 0.952E+00 0.000E+00 0.000E+00 0.000E+00
BIGSUB   6        0    5.15319E+00 0.257E+02 0.000E+00 0.573E+01 0.456E+01 0.118E+03 0.133E+01 0.275E+01 0.334E+00 0.152E+02 0.440E+00 0.770E+00 0.940E-01 0.269E-03 0.218E-03 0.753E-01 0.121E+02 0.213E-01 0.785E-04 .18995E-02 0.256E+02 0.103E+01 0.000E+00 0.000E+00 0.000E+00
BIGSUB   7        0    5.13143E+00 0.257E+02 0.000E+00 0.573E+01 0.451E+01 0.113E+03 0.829E+00 0.393E+01 0.231E+00 0.156E+02 0.578E+00 0.884E+00 0.109E+00 0.802E-03 0.562E-03 0.879E-01 0.114E+02 0.227E-01 0.105E-03 .33764E-02 0.372E+02 0.968E+00 0.000E+00 0.000E+00 0.000E+00
BIGSUB   8        0    5.90085E-01 0.257E+02 0.000E+00 0.573E+01 0.457E+01 0.150E+03 0.232E+01 0.226E+01 0.577E+00 0.148E+02 0.208E+00 0.399E+00 0.491E-01 0.394E-03 0.211E-03 0.390E-01 0.120E+02 0.249E-01 0.138E-03 .45427E-02 0.260E+02 0.104E+01 0.000E+00 0.000E+00 0.000E+00
BIGSUB   9        0    5.37142E-01 0.257E+02 0.000E+00 0.573E+01 0.465E+01 0.125E+03 0.263E+01 0.365E+01 0.684E+00 0.149E+02 0.213E+00 0.483E+00 0.590E-01 0.293E-03 0.491E-03 0.468E-01 0.106E+02 0.202E-01 0.185E-03 .16824E-02 0.142E+02 0.105E+01 0.000E+00 0.000E+00 0.000E+00
BIGSUB   1        0    6.24419E+00 0.130E+01 0.000E+00 0.577E+01 0.364E+01 0.108E+03 0.235E-04 0.595E-03 0.160E+00 0.443E+01 0.197E-09 0.100E-08 0.100E-08 0.200E-07 0.153E-06 0.200E-08 0.426E+01 0.741E-02 0.310E-04 .11585E-10 0.000E+00 0.362E+00 0.000E+00 0.000E+00 0.000E+00
BIGSUB   2        0    6.13482E+00 0.130E+01 0.000E+00 0.577E+01 0.361E+01 0.103E+03 0.191E-04 0.507E-04 0.112E+00 0.433E+01 0.584E-09 0.100E-08 0.100E-08 0.288E-08 0.148E-07 0.200E-08 0.421E+01 0.731E-02 0.228E-04 .74415E-14 0.000E+00 0.354E+00 0.000E+00 0.000E+00 0.000E+00
BIGSUB   3        0    6.12733E+00 0.130E+01 0.000E+00 0.577E+01 0.364E+01 0.108E+03 0.000E+00 0.100E-05 0.169E+00 0.445E+01 0.157E-09 0.100E-08 0.100E-08 0.100E-08 0.100E-08 0.200E-08 0.427E+01 0.730E-02 0.331E-04 .41747E-23 0.000E+00 0.363E+00 0.000E+00 0.000E+00 0.000E+00
BIGSUB   4        0    6.18951E+00 0.130E+01 0.000E+00 0.578E+01 0.349E+01 0.929E+02 0.000E+00 0.139E-05 0.400E-01 0.396E+01 0.264E-09 0.297E-07 0.486E-08 0.112E-08 0.113E-08 0.493E-08 0.391E+01 0.806E-02 0.835E-05 .35202E-16 0.000E+00 0.323E+00 0.000E+00 0.000E+00 0.000E+00
BIGSUB   5        0    6.25558E+00 0.130E+01 0.000E+00 0.577E+01 0.359E+01 0.954E+02 0.133E-04 0.907E-03 0.408E-01 0.404E+01 0.249E-09 0.165E-04 0.202E-05 0.324E-07 0.225E-06 0.153E-05 0.400E+01 0.629E-02 0.844E-05 .91564E-09 0.000E+00 0.330E+00 0.000E+00 0.000E+00 0.000E+00
BIGSUB   6        0    6.15319E+00 0.130E+01 0.000E+00 0.577E+01 0.366E+01 0.115E+03 0.000E+00 0.204E-03 0.333E+00 0.458E+01 0.451E-09 0.737E-05 0.935E-06 0.147E-07 0.525E-07 0.719E-06 0.423E+01 0.735E-02 0.777E-04 .19654E-09 0.000E+00 0.374E+00 0.000E+00 0.000E+00 0.000E+00
BIGSUB   7        0    6.13143E+00 0.130E+01 0.000E+00 0.577E+01 0.362E+01 0.110E+03 0.000E+00 0.343E-05 0.230E+00 0.429E+01 0.837E-09 0.266E-06 0.368E-07 0.163E-08 0.161E-08 0.315E-07 0.405E+01 0.807E-02 0.104E-03 .10441E-17 0.000E+00 0.351E+00 0.000E+00 0.000E+00 0.000E+00
BIGSUB   8        0    6.90085E-01 0.130E+01 0.000E+00 0.576E+01 0.378E+01 0.148E+03 0.553E-04 0.346E-03 0.574E+00 0.479E+01 0.115E-08 0.492E-06 0.608E-07 0.152E-07 0.957E-07 0.506E-07 0.419E+01 0.869E-02 0.136E-03 .19983E-12 0.000E+00 0.392E+00 0.000E+00 0.000E+00 0.000E+00
BIGSUB   9        0    6.37142E-01 0.130E+01 0.000E+00 0.576E+01 0.385E+01 0.122E+03 0.140E-02 0.457E-02 0.681E+00 0.442E+01 0.215E-08 0.167E-06 0.212E-07 0.354E-07 0.838E-06 0.174E-07 0.371E+01 0.701E-02 0.184E-03 .13035E-08 0.000E+00 0.361E+00 0.000E+00 0.000E+00 0.000E+00
BIGSUB   1        0    7.24419E+00 0.000E+00 0.000E+00 0.575E+01 0.232E+01 0.106E+03 0.397E-07 0.117E-03 0.159E+00 0.163E+01 0.197E-09 0.100E-08 0.100E-08 0.469E-08 0.305E-07 0.200E-08 0.146E+01 0.255E-02 0.304E-04 .10593E-12 0.000E+00 0.135E+00 0.000E+00 0.000E+00 0.000E+00
BIGSUB   2        0    7.13482E+00 0.000E+00 0.000E+00 0.575E+01 0.229E+01 0.100E+03 0.000E+00 0.725E-05 0.111E+00 0.157E+01 0.584E-09 0.100E-08 0.100E-08 0.124E-08 0.274E-08 0.200E-08 0.145E+01 0.252E-02 0.224E-04 .15226E-16 0.000E+00 0.130E+00 0.000E+00 0.000E+00 0.000E+00
BIGSUB   3        0    7.12733E+00 0.000E+00 0.000E+00 0.575E+01 0.232E+01 0.105E+03 0.000E+00 0.100E-05 0.168E+00 0.164E+01 0.157E-09 0.100E-08 0.100E-08 0.100E-08 0.100E-08 0.200E-08 0.147E+01 0.251E-02 0.325E-04 .32987E-22 0.000E+00 0.136E+00 0.000E+00 0.000E+00 0.000E+00
BIGSUB   4        0    7.18951E+00 0.000E+00 0.000E+00 0.576E+01 0.219E+01 0.907E+02 0.000E+00 0.100E-05 0.398E-01 0.139E+01 0.264E-09 0.100E-08 0.100E-08 0.100E-08 0.100E-08 0.200E-08 0.134E+01 0.277E-02 0.819E-05 .44291E-22 0.000E+00 0.115E+00 0.000E+00 0.000E+00 0.000E+00
BIGSUB   5        0    7.25558E+00 0.000E+00 0.000E+00 0.575E+01 0.227E+01 0.931E+02 0.266E-07 0.334E-03 0.406E-01 0.142E+01 0.249E-09 0.735E-06 0.908E-07 0.135E-07 0.879E-07 0.701E-07 0.137E+01 0.216E-02 0.826E-05 .89657E-11 0.000E+00 0.118E+00 0.000E+00 0.000E+00 0.000E+00
BIGSUB   6        0    7.15319E+00 0.000E+00 0.000E+00 0.575E+01 0.234E+01 0.113E+03 0.000E+00 0.812E-05 0.331E+00 0.180E+01 0.451E-09 0.194E-06 0.248E-07 0.127E-08 0.275E-08 0.201E-07 0.146E+01 0.253E-02 0.766E-04 .10094E-13 0.000E+00 0.149E+00 0.000E+00 0.000E+00 0.000E+00
BIGSUB   7        0    7.13143E+00 0.000E+00 0.000E+00 0.575E+01 0.231E+01 0.108E+03 0.000E+00 0.100E-05 0.229E+00 0.166E+01 0.837E-09 0.100E-08 0.100E-08 0.100E-08 0.100E-08 0.200E-08 0.142E+01 0.291E-02 0.103E-03 .35091E-22 0.000E+00 0.138E+00 0.000E+00 0.000E+00 0.000E+00
BIGSUB   8        0    7.90085E-01 0.000E+00 0.000E+00 0.575E+01 0.247E+01 0.145E+03 0.000E+00 0.123E-03 0.571E+00 0.205E+01 0.115E-08 0.999E-09 0.999E-09 0.593E-08 0.355E-07 0.200E-08 0.146E+01 0.306E-02 0.134E-03 .44070E-13 0.000E+00 0.170E+00 0.000E+00 0.000E+00 0.000E+00
BIGSUB   9        0    7.37142E-01 0.000E+00 0.000E+00 0.574E+01 0.248E+01 0.120E+03 0.686E-03 0.180E-04 0.678E+00 0.199E+01 0.215E-08 0.100E-08 0.100E-08 0.106E-08 0.406E-08 0.200E-08 0.128E+01 0.243E-02 0.181E-03 .14442E-12 0.000E+00 0.165E+00 0.000E+00 0.000E+00 0.000E+00
BIGSUB   1        0    8.24419E+00 0.000E+00 0.000E+00 0.597E+01 0.193E+01 0.104E+03 0.000E+00 0.235E-04 0.158E+00 0.669E+00 0.197E-09 0.100E-08 0.100E-08 0.172E-08 0.675E-08 0.200E-08 0.503E+00 0.875E-03 0.297E-04 .82299E-15 0.000E+00 0.553E-01 0.000E+00 0.000E+00 0.000E+00
BIGSUB   2        0    8.13482E+00 0.000E+00 0.000E+00 0.597E+01 0.190E+01 0.984E+02 0.000E+00 0.178E-05 0.110E+00 0.615E+00 0.584E-09 0.100E-08 0.100E-08 0.103E-08 0.122E-08 0.200E-08 0.498E+00 0.871E-03 0.220E-04 .31559E-19 0.000E+00 0.508E-01 0.000E+00 0.000E+00 0.000E+00
BIGSUB   3        0    8.12733E+00 0.000E+00 0.000E+00 0.597E+01 0.193E+01 0.103E+03 0.000E+00 0.100E-05 0.167E+00 0.680E+00 0.157E-09 0.100E-08 0.100E-08 0.100E-08 0.100E-08 0.200E-08 0.504E+00 0.862E-03 0.318E-04 .25582E-21 0.000E+00 0.562E-01 0.000E+00 0.000E+00 0.000E+00
BIGSUB   4        0    8.18951E+00 0.000E+00 0.000E+00 0.597E+01 0.181E+01 0.889E+02 0.000E+00 0.100E-05 0.395E-01 0.504E+00 0.264E-09 0.100E-08 0.100E-08 0.100E-08 0.100E-08 0.200E-08 0.462E+00 0.953E-03 0.801E-05 .36795E-21 0.000E+00 0.417E-01 0.000E+00 0.000E+00 0.000E+00
BIGSUB   5        0    8.25558E+00 0.000E+00 0.000E+00 0.597E+01 0.188E+01 0.912E+02 0.000E+00 0.192E-03 0.402E-01 0.518E+00 0.249E-09 0.337E-07 0.499E-08 0.822E-08 0.513E-07 0.503E-08 0.472E+00 0.742E-03 0.806E-05 .21884E-11 0.000E+00 0.428E-01 0.000E+00 0.000E+00 0.000E+00
BIGSUB   6        0    8.15319E+00 0.000E+00 0.000E+00 0.597E+01 0.196E+01 0.111E+03 0.000E+00 0.128E-05 0.329E+00 0.845E+00 0.451E-09 0.773E-08 0.182E-08 0.101E-08 0.107E-08 0.262E-08 0.500E+00 0.870E-03 0.751E-04 .52120E-18 0.000E+00 0.698E-01 0.000E+00 0.000E+00 0.000E+00
BIGSUB   7        0    8.13143E+00 0.000E+00 0.000E+00 0.597E+01 0.192E+01 0.106E+03 0.000E+00 0.100E-05 0.228E+00 0.745E+00 0.837E-09 0.100E-08 0.100E-08 0.100E-08 0.100E-08 0.200E-08 0.506E+00 0.108E-02 0.102E-03 .27214E-21 0.000E+00 0.616E-01 0.000E+00 0.000E+00 0.000E+00
BIGSUB   8        0    8.90085E-01 0.000E+00 0.000E+00 0.597E+01 0.209E+01 0.143E+03 0.000E+00 0.707E-04 0.567E+00 0.110E+01 0.115E-08 0.999E-09 0.999E-09 0.383E-08 0.208E-07 0.200E-08 0.509E+00 0.110E-02 0.132E-03 .98666E-14 0.000E+00 0.911E-01 0.000E+00 0.000E+00 0.000E+00
BIGSUB   9        0    8.37142E-01 0.000E+00 0.000E+00 0.597E+01 0.196E+01 0.118E+03 0.000E+00 0.101E-05 0.674E+00 0.115E+01 0.215E-08 0.100E-08 0.100E-08 0.100E-08 0.100E-08 0.200E-08 0.448E+00 0.852E-03 0.178E-03 .24336E-17 0.000E+00 0.953E-01 0.000E+00 0.000E+00 0.000E+00
BIGSUB   1        0    9.24419E+00 0.709E+02 0.000E+00 0.427E+01 0.367E+01 0.112E+03 0.119E+01 0.288E+02 0.158E+00 0.482E+02 0.432E+01 0.726E+01 0.888E+00 0.178E-02 0.218E-02 0.711E+00 0.192E+02 0.296E-01 0.303E-04 .11409E+00 0.649E+03 0.163E+01 0.000E+00 0.000E+00 0.000E+00
BIGSUB   2        0    9.13482E+00 0.709E+02 0.000E+00 0.427E+01 0.365E+01 0.107E+03 0.826E+00 0.303E+02 0.110E+00 0.489E+02 0.411E+01 0.698E+01 0.852E+00 0.234E-02 0.270E-02 0.683E+00 0.185E+02 0.281E-01 0.224E-04 .11135E+00 0.627E+03 0.161E+01 0.000E+00 0.000E+00 0.000E+00
BIGSUB   3        0    9.12733E+00 0.709E+02 0.000E+00 0.427E+01 0.367E+01 0.112E+03 0.126E+01 0.287E+02 0.168E+00 0.481E+02 0.330E+01 0.651E+01 0.795E+00 0.167E-02 0.221E-02 0.635E+00 0.192E+02 0.294E-01 0.324E-04 .10078E+00 0.527E+03 0.163E+01 0.000E+00 0.000E+00 0.000E+00
BIGSUB   4        0    9.18951E+00 0.709E+02 0.000E+00 0.427E+01 0.353E+01 0.966E+02 0.302E+00 0.358E+02 0.395E-01 0.515E+02 0.330E+01 0.467E+01 0.572E+00 0.640E-02 0.641E-02 0.460E+00 0.156E+02 0.252E-01 0.813E-05 .77831E-01 0.475E+03 0.134E+01 0.000E+00 0.000E+00 0.000E+00
BIGSUB   5        0    9.25558E+00 0.709E+02 0.000E+00 0.427E+01 0.366E+01 0.994E+02 0.581E+00 0.326E+02 0.403E-01 0.498E+02 0.283E+01 0.598E+01 0.731E+00 0.253E-02 0.306E-02 0.584E+00 0.171E+02 0.273E-01 0.817E-05 .10225E+00 0.496E+03 0.146E+01 0.000E+00 0.000E+00 0.000E+00
BIGSUB   6        0    9.15319E+00 0.709E+02 0.000E+00 0.427E+01 0.367E+01 0.119E+03 0.238E+01 0.272E+02 0.330E+00 0.470E+02 0.290E+01 0.598E+01 0.731E+00 0.165E-02 0.234E-02 0.582E+00 0.195E+02 0.304E-01 0.765E-04 .89112E-01 0.460E+03 0.167E+01 0.000E+00 0.000E+00 0.000E+00
BIGSUB   7        0    9.13143E+00 0.709E+02 0.000E+00 0.427E+01 0.363E+01 0.114E+03 0.132E+01 0.312E+02 0.228E+00 0.490E+02 0.356E+01 0.614E+01 0.756E+00 0.393E-02 0.390E-02 0.606E+00 0.176E+02 0.303E-01 0.103E-03 .10044E+00 0.549E+03 0.152E+01 0.000E+00 0.000E+00 0.000E+00
BIGSUB   8        0    9.90085E-01 0.709E+02 0.000E+00 0.427E+01 0.367E+01 0.151E+03 0.415E+01 0.234E+02 0.569E+00 0.449E+02 0.147E+01 0.427E+01 0.523E+00 0.212E-02 0.254E-02 0.410E+00 0.209E+02 0.389E-01 0.135E-03 .51756E-01 0.232E+03 0.182E+01 0.000E+00 0.000E+00 0.000E+00
BIGSUB   9        0    9.37142E-01 0.709E+02 0.000E+00 0.427E+01 0.372E+01 0.129E+03 0.454E+01 0.252E+02 0.676E+00 0.434E+02 0.145E+01 0.409E+01 0.500E+00 0.188E-02 0.303E-02 0.393E+00 0.175E+02 0.295E-01 0.181E-03 .59162E-01 0.247E+03 0.165E+01 0.000E+00 0.000E+00 0.000E+00
BIGSUB   1        0   10.24419E+00 0.498E+02 0.000E+00 0.413E+01 0.359E+01 0.113E+03 0.170E+01 0.162E+02 0.160E+00 0.407E+02 0.688E-05 0.515E+01 0.630E+00 0.105E-02 0.116E-02 0.505E+00 0.243E+02 0.513E-01 0.321E-04 .39892E-01 0.213E-02 0.345E+01 0.000E+00 0.000E+00 0.000E+00
BIGSUB   2        0   10.13482E+00 0.498E+02 0.000E+00 0.413E+01 0.358E+01 0.108E+03 0.128E+01 0.173E+02 0.112E+00 0.410E+02 0.584E-09 0.500E+01 0.611E+00 0.144E-02 0.148E-02 0.490E+00 0.236E+02 0.499E-01 0.238E-04 .39265E-01 0.783E-07 0.347E+01 0.000E+00 0.000E+00 0.000E+00
BIGSUB   3        0   10.12733E+00 0.498E+02 0.000E+00 0.413E+01 0.360E+01 0.113E+03 0.177E+01 0.161E+02 0.170E+00 0.407E+02 0.157E-09 0.470E+01 0.575E+00 0.968E-03 0.116E-02 0.459E+00 0.244E+02 0.500E-01 0.343E-04 .35675E-01 0.122E-07 0.344E+01 0.000E+00 0.000E+00 0.000E+00
BIGSUB   4        0   10.18951E+00 0.498E+02 0.000E+00 0.414E+01 0.347E+01 0.984E+02 0.517E+00 0.212E+02 0.401E-01 0.416E+02 0.576E-03 0.330E+01 0.404E+00 0.444E-02 0.371E-02 0.325E+00 0.203E+02 0.448E-01 0.859E-05 .27581E-01 0.819E-01 0.352E+01 0.000E+00 0.000E+00 0.000E+00
BIGSUB   5        0   10.25558E+00 0.498E+02 0.000E+00 0.413E+01 0.357E+01 0.997E+02 0.163E+01 0.190E+02 0.409E-01 0.415E+02 0.748E-03 0.448E+01 0.548E+00 0.162E-02 0.173E-02 0.438E+00 0.225E+02 0.513E-01 0.861E-05 .37879E-01 0.110E+00 0.351E+01 0.000E+00 0.000E+00 0.000E+00
BIGSUB   6        0   10.15319E+00 0.498E+02 0.000E+00 0.413E+01 0.359E+01 0.120E+03 0.289E+01 0.150E+02 0.334E+00 0.399E+02 0.451E-09 0.427E+01 0.522E+00 0.937E-03 0.121E-02 0.416E+00 0.246E+02 0.490E-01 0.806E-04 .30861E-01 0.747E-07 0.338E+01 0.000E+00 0.000E+00 0.000E+00
BIGSUB   7        0   10.13143E+00 0.498E+02 0.000E+00 0.413E+01 0.355E+01 0.115E+03 0.196E+01 0.178E+02 0.231E+00 0.406E+02 0.737E-03 0.438E+01 0.539E+00 0.255E-02 0.217E-02 0.433E+00 0.225E+02 0.520E-01 0.106E-03 .37790E-01 0.136E+00 0.343E+01 0.000E+00 0.000E+00 0.000E+00
BIGSUB   8        0   10.90085E-01 0.498E+02 0.000E+00 0.412E+01 0.359E+01 0.152E+03 0.479E+01 0.122E+02 0.576E+00 0.388E+02 0.705E-02 0.284E+01 0.348E+00 0.123E-02 0.124E-02 0.273E+00 0.259E+02 0.548E-01 0.143E-03 .20035E-01 0.166E+01 0.309E+01 0.000E+00 0.000E+00 0.000E+00
BIGSUB   9        0   10.37142E-01 0.498E+02 0.000E+00 0.412E+01 0.362E+01 0.130E+03 0.517E+01 0.161E+02 0.684E+00 0.388E+02 0.215E-08 0.293E+01 0.358E+00 0.107E-02 0.198E-02 0.282E+00 0.219E+02 0.431E-01 0.190E-03 .21696E-01 0.226E-06 0.328E+01 0.000E+00 0.000E+00 0.000E+00
BIGSUB   1        0   11.24419E+00 0.531E+02 0.000E+00 0.218E+01 0.216E+01 0.115E+03 0.216E+01 0.187E+02 0.164E+00 0.460E+02 0.379E+01 0.481E+01 0.588E+00 0.742E-03 0.130E-02 0.471E+00 0.272E+02 0.692E-01 0.351E-04 .37658E-01 0.377E+03 0.229E+01 0.000E+00 0.000E+00 0.000E+00
BIGSUB   2        0   11.13482E+00 0.531E+02 0.000E+00 0.217E+01 0.215E+01 0.110E+03 0.174E+01 0.199E+02 0.115E+00 0.463E+02 0.362E+01 0.467E+01 0.571E+00 0.107E-02 0.165E-02 0.458E+00 0.264E+02 0.684E-01 0.261E-04 .37221E-01 0.365E+03 0.224E+01 0.000E+00 0.000E+00 0.000E+00
BIGSUB   3        0   11.12733E+00 0.531E+02 0.000E+00 0.217E+01 0.216E+01 0.114E+03 0.227E+01 0.186E+02 0.174E+00 0.459E+02 0.289E+01 0.447E+01 0.546E+00 0.678E-03 0.131E-02 0.436E+00 0.272E+02 0.674E-01 0.375E-04 .34449E-01 0.305E+03 0.229E+01 0.000E+00 0.000E+00 0.000E+00
BIGSUB   4        0   11.18951E+00 0.531E+02 0.000E+00 0.217E+01 0.205E+01 0.101E+03 0.774E+00 0.241E+02 0.411E-01 0.468E+02 0.293E+01 0.299E+01 0.367E+00 0.362E-02 0.410E-02 0.295E+00 0.226E+02 0.568E-01 0.938E-05 .25370E-01 0.280E+03 0.191E+01 0.000E+00 0.000E+00 0.000E+00
BIGSUB   5        0   11.25558E+00 0.531E+02 0.000E+00 0.217E+01 0.214E+01 0.101E+03 0.171E+01 0.214E+02 0.419E-01 0.464E+02 0.246E+01 0.419E+01 0.512E+00 0.121E-02 0.190E-02 0.409E+00 0.250E+02 0.570E-01 0.934E-05 .35772E-01 0.285E+03 0.210E+01 0.000E+00 0.000E+00 0.000E+00
BIGSUB   6        0   11.15319E+00 0.531E+02 0.000E+00 0.218E+01 0.216E+01 0.122E+03 0.338E+01 0.174E+02 0.341E+00 0.450E+02 0.253E+01 0.408E+01 0.499E+00 0.660E-03 0.136E-02 0.397E+00 0.273E+02 0.637E-01 0.871E-04 .29895E-01 0.264E+03 0.232E+01 0.000E+00 0.000E+00 0.000E+00
BIGSUB   7        0   11.13143E+00 0.531E+02 0.000E+00 0.218E+01 0.213E+01 0.117E+03 0.234E+01 0.204E+02 0.235E+00 0.458E+02 0.312E+01 0.409E+01 0.504E+00 0.195E-02 0.240E-02 0.404E+00 0.251E+02 0.671E-01 0.113E-03 .35409E-01 0.324E+03 0.213E+01 0.000E+00 0.000E+00 0.000E+00
BIGSUB   8        0   11.90085E-01 0.531E+02 0.000E+00 0.218E+01 0.216E+01 0.153E+03 0.528E+01 0.141E+02 0.589E+00 0.434E+02 0.118E+01 0.282E+01 0.345E+00 0.897E-03 0.139E-02 0.271E+00 0.286E+02 0.614E-01 0.155E-03 .18852E-01 0.131E+03 0.246E+01 0.000E+00 0.000E+00 0.000E+00
BIGSUB   9        0   11.37142E-01 0.531E+02 0.000E+00 0.218E+01 0.216E+01 0.131E+03 0.562E+01 0.184E+02 0.698E+00 0.434E+02 0.125E+01 0.286E+01 0.349E+00 0.785E-03 0.220E-02 0.275E+00 0.243E+02 0.517E-01 0.204E-03 .21253E-01 0.141E+03 0.239E+01 0.000E+00 0.000E+00 0.000E+00
BIGSUB   1        0   12.24419E+00 0.389E+02 0.000E+00 0.188E+01 0.186E+01 0.115E+03 0.196E+01 0.101E+02 0.169E+00 0.358E+02 0.357E-06 0.194E+01 0.237E+00 0.393E-03 0.663E-03 0.190E+00 0.255E+02 0.693E-01 0.390E-04 .81842E-02 0.100E-03 0.299E+01 0.000E+00 0.000E+00 0.000E+00
BIGSUB   2        0   12.13482E+00 0.389E+02 0.000E+00 0.188E+01 0.185E+01 0.110E+03 0.164E+01 0.109E+02 0.118E+00 0.360E+02 0.584E-09 0.191E+01 0.233E+00 0.626E-03 0.884E-03 0.187E+00 0.250E+02 0.692E-01 0.290E-04 .80631E-02 0.626E-07 0.300E+01 0.000E+00 0.000E+00 0.000E+00
BIGSUB   3        0   12.12733E+00 0.389E+02 0.000E+00 0.188E+01 0.186E+01 0.115E+03 0.206E+01 0.998E+01 0.179E+00 0.357E+02 0.157E-09 0.183E+01 0.224E+00 0.349E-03 0.665E-03 0.179E+00 0.256E+02 0.674E-01 0.417E-04 .75140E-02 0.914E-08 0.298E+01 0.000E+00 0.000E+00 0.000E+00
BIGSUB   4        0   12.18951E+00 0.389E+02 0.000E+00 0.187E+01 0.177E+01 0.101E+03 0.101E+01 0.141E+02 0.424E-01 0.362E+02 0.264E-09 0.121E+01 0.148E+00 0.248E-02 0.240E-02 0.120E+00 0.220E+02 0.582E-01 0.104E-04 .55444E-02 0.354E-07 0.302E+01 0.000E+00 0.000E+00 0.000E+00
BIGSUB   5        0   12.25558E+00 0.389E+02 0.000E+00 0.188E+01 0.185E+01 0.102E+03 0.169E+01 0.120E+02 0.432E-01 0.358E+02 0.414E-06 0.179E+01 0.218E+00 0.738E-03 0.105E-02 0.174E+00 0.237E+02 0.542E-01 0.103E-04 .81945E-02 0.335E-07 0.298E+01 0.000E+00 0.000E+00 0.000E+00
BIGSUB   6        0   12.15319E+00 0.389E+02 0.000E+00 0.188E+01 0.186E+01 0.122E+03 0.298E+01 0.916E+01 0.350E+00 0.351E+02 0.451E-09 0.165E+01 0.201E+00 0.348E-03 0.677E-03 0.161E+00 0.255E+02 0.627E-01 0.955E-04 .64287E-02 0.617E-07 0.293E+01 0.000E+00 0.000E+00 0.000E+00
BIGSUB   7        0   12.13143E+00 0.389E+02 0.000E+00 0.188E+01 0.184E+01 0.117E+03 0.224E+01 0.114E+02 0.242E+00 0.354E+02 0.837E-09 0.167E+01 0.205E+00 0.124E-02 0.133E-02 0.165E+00 0.238E+02 0.673E-01 0.121E-03 .84780E-02 0.111E-06 0.296E+01 0.000E+00 0.000E+00 0.000E+00
BIGSUB   8        0   12.90085E-01 0.389E+02 0.000E+00 0.188E+01 0.186E+01 0.154E+03 0.460E+01 0.714E+01 0.606E+00 0.340E+02 0.115E-08 0.104E+01 0.127E+00 0.544E-03 0.654E-03 0.100E+00 0.262E+02 0.564E-01 0.171E-03 .58124E-02 0.157E-06 0.284E+01 0.000E+00 0.000E+00 0.000E+00
BIGSUB   9        0   12.37142E-01 0.389E+02 0.000E+00 0.188E+01 0.186E+01 0.131E+03 0.488E+01 0.102E+02 0.716E+00 0.334E+02 0.215E-08 0.114E+01 0.139E+00 0.452E-03 0.121E-02 0.110E+00 0.225E+02 0.490E-01 0.222E-03 .49423E-02 0.186E-06 0.279E+01 0.000E+00 0.000E+00 0.000E+00
BIGSUB   1        0   13.24419E+00 0.150E+02 0.000E+00 0.190E+01 0.189E+01 0.115E+03 0.838E+00 0.600E+00 0.174E+00 0.172E+02 0.350E-01 0.482E-01 0.590E-02 0.568E-04 0.378E-04 0.475E-02 0.164E+02 0.444E-01 0.428E-04 .84883E-05 0.590E+00 0.138E+01 0.000E+00 0.000E+00 0.000E+00
BIGSUB   2        0   13.13482E+00 0.150E+02 0.000E+00 0.190E+01 0.188E+01 0.110E+03 0.722E+00 0.708E+00 0.122E+00 0.171E+02 0.330E-01 0.479E-01 0.586E-02 0.116E-03 0.653E-04 0.472E-02 0.163E+02 0.447E-01 0.320E-04 .43537E-05 0.474E+00 0.137E+01 0.000E+00 0.000E+00 0.000E+00
BIGSUB   3        0   13.12733E+00 0.150E+02 0.000E+00 0.190E+01 0.189E+01 0.115E+03 0.878E+00 0.567E+00 0.185E+00 0.172E+02 0.257E-01 0.447E-01 0.546E-02 0.383E-04 0.339E-04 0.438E-02 0.165E+02 0.431E-01 0.458E-04 .39287E-05 0.390E+00 0.139E+01 0.000E+00 0.000E+00 0.000E+00
BIGSUB   4        0   13.18951E+00 0.150E+02 0.000E+00 0.190E+01 0.180E+01 0.101E+03 0.486E+00 0.140E+01 0.438E-01 0.165E+02 0.284E-01 0.322E-01 0.396E-02 0.662E-03 0.272E-03 0.320E-02 0.150E+02 0.389E-01 0.114E-04 .66926E-05 0.486E+00 0.132E+01 0.000E+00 0.000E+00 0.000E+00
BIGSUB   5        0   13.25558E+00 0.150E+02 0.000E+00 0.190E+01 0.187E+01 0.102E+03 0.807E+00 0.845E+00 0.446E-01 0.166E+02 0.236E-01 0.479E-01 0.586E-02 0.153E-03 0.863E-04 0.469E-02 0.157E+02 0.347E-01 0.112E-04 .77570E-05 0.510E+00 0.132E+01 0.000E+00 0.000E+00 0.000E+00
BIGSUB   6        0   13.15319E+00 0.150E+02 0.000E+00 0.190E+01 0.189E+01 0.122E+03 0.124E+01 0.498E+00 0.360E+00 0.171E+02 0.220E-01 0.377E-01 0.461E-02 0.443E-04 0.338E-04 0.370E-02 0.163E+02 0.398E-01 0.104E-03 .35015E-05 0.333E+00 0.139E+01 0.000E+00 0.000E+00 0.000E+00
BIGSUB   7        0   13.13143E+00 0.150E+02 0.000E+00 0.190E+01 0.186E+01 0.117E+03 0.107E+01 0.909E+00 0.248E+00 0.167E+02 0.316E-01 0.450E-01 0.558E-02 0.296E-03 0.127E-03 0.451E-02 0.156E+02 0.437E-01 0.130E-03 .22742E-04 0.805E+00 0.133E+01 0.000E+00 0.000E+00 0.000E+00
BIGSUB   8        0   13.90085E-01 0.150E+02 0.000E+00 0.190E+01 0.189E+01 0.154E+03 0.192E+01 0.650E+00 0.623E+00 0.172E+02 0.161E-01 0.243E-01 0.300E-02 0.175E-03 0.444E-04 0.241E-02 0.159E+02 0.345E-01 0.186E-03 .30808E-03 0.265E+01 0.138E+01 0.000E+00 0.000E+00 0.000E+00
BIGSUB   9        0   13.37142E-01 0.150E+02 0.000E+00 0.190E+01 0.189E+01 0.131E+03 0.208E+01 0.130E+01 0.734E+00 0.162E+02 0.107E-01 0.246E-01 0.301E-02 0.737E-04 0.190E-03 0.239E-02 0.141E+02 0.306E-01 0.240E-03 .93547E-05 0.214E+00 0.131E+01 0.000E+00 0.000E+00 0.000E+00
BIGSUB   1        0   14.24419E+00 0.234E+02 0.000E+00 0.210E+01 0.209E+01 0.115E+03 0.132E+01 0.281E+01 0.180E+00 0.201E+02 0.235E+00 0.335E+00 0.410E-01 0.946E-04 0.171E-03 0.330E-01 0.171E+02 0.456E-01 0.471E-04 .46439E-03 0.115E+02 0.144E+01 0.000E+00 0.000E+00 0.000E+00
BIGSUB   2        0   14.13482E+00 0.234E+02 0.000E+00 0.210E+01 0.208E+01 0.110E+03 0.112E+01 0.317E+01 0.126E+00 0.202E+02 0.225E+00 0.336E+00 0.411E-01 0.188E-03 0.257E-03 0.331E-01 0.169E+02 0.459E-01 0.351E-04 .42944E-03 0.109E+02 0.145E+01 0.000E+00 0.000E+00 0.000E+00
BIGSUB   3        0   14.12733E+00 0.234E+02 0.000E+00 0.210E+01 0.209E+01 0.114E+03 0.138E+01 0.275E+01 0.191E+00 0.200E+02 0.176E+00 0.317E+00 0.387E-01 0.769E-04 0.167E-03 0.311E-01 0.171E+02 0.442E-01 0.503E-04 .39987E-03 0.900E+01 0.144E+01 0.000E+00 0.000E+00 0.000E+00
BIGSUB   4        0   14.18951E+00 0.234E+02 0.000E+00 0.210E+01 0.199E+01 0.101E+03 0.723E+00 0.482E+01 0.453E-01 0.206E+02 0.187E+00 0.218E+00 0.267E-01 0.965E-03 0.849E-03 0.216E-01 0.157E+02 0.397E-01 0.126E-04 .32145E-03 0.873E+01 0.143E+01 0.000E+00 0.000E+00 0.000E+00
BIGSUB   5        0   14.25558E+00 0.234E+02 0.000E+00 0.210E+01 0.207E+01 0.101E+03 0.121E+01 0.364E+01 0.462E-01 0.200E+02 0.155E+00 0.330E+00 0.404E-01 0.240E-03 0.325E-03 0.323E-01 0.163E+02 0.352E-01 0.123E-04 .46272E-03 0.894E+01 0.140E+01 0.000E+00 0.000E+00 0.000E+00
BIGSUB   6        0   14.15319E+00 0.234E+02 0.000E+00 0.210E+01 0.209E+01 0.122E+03 0.197E+01 0.243E+01 0.370E+00 0.196E+02 0.152E+00 0.272E+00 0.332E-01 0.829E-04 0.162E-03 0.266E-01 0.168E+02 0.406E-01 0.113E-03 .33950E-03 0.767E+01 0.144E+01 0.000E+00 0.000E+00 0.000E+00
BIGSUB   7        0   14.13143E+00 0.234E+02 0.000E+00 0.210E+01 0.206E+01 0.117E+03 0.159E+01 0.350E+01 0.255E+00 0.199E+02 0.195E+00 0.292E+00 0.360E-01 0.426E-03 0.425E-03 0.291E-01 0.161E+02 0.446E-01 0.140E-03 .59685E-03 0.107E+02 0.140E+01 0.000E+00 0.000E+00 0.000E+00
BIGSUB   8        0   14.90085E-01 0.234E+02 0.000E+00 0.210E+01 0.209E+01 0.153E+03 0.304E+01 0.189E+01 0.642E+00 0.189E+02 0.588E-01 0.131E+00 0.161E-01 0.182E-03 0.143E-03 0.129E-01 0.163E+02 0.346E-01 0.203E-03 .11535E-02 0.719E+01 0.143E+01 0.000E+00 0.000E+00 0.000E+00
BIGSUB   9        0   14.37142E-01 0.234E+02 0.000E+00 0.210E+01 0.209E+01 0.131E+03 0.327E+01 0.340E+01 0.754E+00 0.187E+02 0.720E-01 0.173E+00 0.211E-01 0.132E-03 0.429E-03 0.168E-01 0.145E+02 0.310E-01 0.259E-03 .32800E-03 0.408E+01 0.141E+01 0.000E+00 0.000E+00 0.000E+00
BIGSUB   1        0   15.24419E+00 0.175E+02 0.000E+00 0.244E+01 0.243E+01 0.114E+03 0.969E+00 0.109E+01 0.186E+00 0.159E+02 0.224E-02 0.212E+00 0.259E-01 0.460E-04 0.646E-04 0.209E-01 0.146E+02 0.379E-01 0.514E-04 .94816E-04 0.187E+00 0.132E+01 0.000E+00 0.000E+00 0.000E+00
BIGSUB   2        0   15.13482E+00 0.175E+02 0.000E+00 0.244E+01 0.241E+01 0.109E+03 0.830E+00 0.126E+01 0.130E+00 0.160E+02 0.337E-04 0.213E+00 0.260E-01 0.103E-03 0.107E-03 0.210E-01 0.146E+02 0.383E-01 0.384E-04 .71376E-04 0.268E-02 0.133E+01 0.000E+00 0.000E+00 0.000E+00
BIGSUB   3        0   15.12733E+00 0.175E+02 0.000E+00 0.244E+01 0.243E+01 0.114E+03 0.102E+01 0.105E+01 0.197E+00 0.159E+02 0.157E-09 0.198E+00 0.242E-01 0.334E-04 0.607E-04 0.195E-01 0.146E+02 0.368E-01 0.549E-04 .65806E-04 0.173E-08 0.132E+01 0.000E+00 0.000E+00 0.000E+00
BIGSUB   4        0   15.18951E+00 0.175E+02 0.000E+00 0.245E+01 0.232E+01 0.101E+03 0.550E+00 0.224E+01 0.468E-01 0.160E+02 0.241E-02 0.143E+00 0.176E-01 0.593E-03 0.413E-03 0.142E-01 0.137E+02 0.334E-01 0.137E-04 .71097E-04 0.221E+00 0.130E+01 0.000E+00 0.000E+00 0.000E+00
BIGSUB   5        0   15.25558E+00 0.175E+02 0.000E+00 0.244E+01 0.241E+01 0.101E+03 0.916E+00 0.149E+01 0.478E-01 0.157E+02 0.241E-02 0.213E+00 0.260E-01 0.137E-03 0.140E-03 0.208E-01 0.142E+02 0.293E-01 0.133E-04 .87195E-04 0.237E+00 0.130E+01 0.000E+00 0.000E+00 0.000E+00
BIGSUB   6        0   15.15319E+00 0.175E+02 0.000E+00 0.244E+01 0.242E+01 0.121E+03 0.144E+01 0.912E+00 0.381E+00 0.157E+02 0.778E-05 0.167E+00 0.205E-01 0.389E-04 0.588E-04 0.164E-01 0.144E+02 0.337E-01 0.121E-03 .56646E-04 0.102E-02 0.130E+01 0.000E+00 0.000E+00 0.000E+00
BIGSUB   7        0   15.13143E+00 0.175E+02 0.000E+00 0.244E+01 0.239E+01 0.117E+03 0.122E+01 0.151E+01 0.263E+00 0.157E+02 0.790E-02 0.194E+00 0.241E-01 0.257E-03 0.195E-03 0.195E-01 0.139E+02 0.372E-01 0.150E-03 .18352E-03 0.639E+00 0.127E+01 0.000E+00 0.000E+00 0.000E+00
BIGSUB   8        0   15.90085E-01 0.175E+02 0.000E+00 0.244E+01 0.242E+01 0.153E+03 0.222E+01 0.901E+00 0.661E+00 0.153E+02 0.230E-01 0.852E-01 0.105E-01 0.115E-03 0.599E-04 0.844E-02 0.137E+02 0.285E-01 0.220E-03 .10123E-02 0.414E+01 0.121E+01 0.000E+00 0.000E+00 0.000E+00
BIGSUB   9        0   15.37142E-01 0.175E+02 0.000E+00 0.244E+01 0.242E+01 0.131E+03 0.241E+01 0.179E+01 0.774E+00 0.149E+02 0.960E-03 0.111E+00 0.136E-01 0.694E-04 0.247E-03 0.108E-01 0.123E+02 0.256E-01 0.278E-03 .97873E-04 0.863E-01 0.122E+01 0.000E+00 0.000E+00 0.000E+00
BIGSUB   1        0   16.24419E+00 0.840E+01 0.000E+00 0.276E+01 0.274E+01 0.114E+03 0.323E+00 0.742E-02 0.191E+00 0.893E+01 0.197E-09 0.499E-03 0.636E-04 0.369E-05 0.947E-06 0.511E-04 0.873E+01 0.204E-01 0.552E-04 .18993E-06 0.157E-08 0.740E+00 0.000E+00 0.000E+00 0.000E+00
BIGSUB   2        0   16.13482E+00 0.840E+01 0.000E+00 0.276E+01 0.272E+01 0.109E+03 0.279E+00 0.116E-01 0.134E+00 0.890E+01 0.584E-09 0.104E-08 0.100E-08 0.858E-05 0.290E-05 0.200E-08 0.874E+01 0.207E-01 0.412E-04 .20610E-09 0.000E+00 0.737E+00 0.000E+00 0.000E+00 0.000E+00
BIGSUB   3        0   16.12733E+00 0.840E+01 0.000E+00 0.275E+01 0.273E+01 0.114E+03 0.338E+00 0.100E-05 0.202E+00 0.893E+01 0.157E-09 0.100E-08 0.100E-08 0.100E-08 0.100E-08 0.200E-08 0.872E+01 0.198E-01 0.589E-04 .10038E-23 0.000E+00 0.740E+00 0.000E+00 0.000E+00 0.000E+00
BIGSUB   4        0   16.18951E+00 0.840E+01 0.000E+00 0.275E+01 0.260E+01 0.100E+03 0.197E+00 0.980E-01 0.483E-01 0.867E+01 0.264E-09 0.445E-03 0.582E-04 0.696E-04 0.229E-04 0.477E-04 0.852E+01 0.187E-01 0.148E-04 .26830E-06 0.333E-08 0.718E+00 0.000E+00 0.000E+00 0.000E+00
BIGSUB   5        0   16.25558E+00 0.840E+01 0.000E+00 0.275E+01 0.271E+01 0.101E+03 0.317E+00 0.206E-01 0.492E-01 0.865E+01 0.974E-09 0.201E-03 0.250E-04 0.126E-04 0.438E-05 0.206E-04 0.858E+01 0.162E-01 0.143E-04 .42833E-06 0.253E-08 0.717E+00 0.000E+00 0.000E+00 0.000E+00
BIGSUB   6        0   16.15319E+00 0.840E+01 0.000E+00 0.276E+01 0.274E+01 0.121E+03 0.495E+00 0.195E-02 0.391E+00 0.894E+01 0.451E-09 0.842E-06 0.115E-06 0.134E-05 0.481E-06 0.918E-07 0.853E+01 0.182E-01 0.129E-03 .10308E-09 0.000E+00 0.740E+00 0.000E+00 0.000E+00 0.000E+00
BIGSUB   7        0   16.13143E+00 0.840E+01 0.000E+00 0.276E+01 0.270E+01 0.117E+03 0.469E+00 0.500E-01 0.270E+00 0.875E+01 0.837E-09 0.174E-02 0.225E-03 0.285E-04 0.939E-05 0.184E-03 0.842E+01 0.206E-01 0.159E-03 .14136E-05 0.937E-08 0.725E+00 0.000E+00 0.000E+00 0.000E+00
BIGSUB   8        0   16.90085E-01 0.840E+01 0.000E+00 0.276E+01 0.274E+01 0.153E+03 0.802E+00 0.176E+00 0.680E+00 0.888E+01 0.115E-08 0.795E-02 0.978E-03 0.425E-04 0.997E-05 0.787E-03 0.799E+01 0.159E-01 0.235E-03 .97302E-04 0.495E-07 0.735E+00 0.000E+00 0.000E+00 0.000E+00
BIGSUB   9        0   16.37142E-01 0.840E+01 0.000E+00 0.276E+01 0.274E+01 0.131E+03 0.894E+00 0.421E+00 0.793E+00 0.855E+01 0.215E-08 0.697E-03 0.852E-04 0.517E-05 0.732E-04 0.655E-04 0.730E+01 0.141E-01 0.295E-03 .17848E-06 0.579E-08 0.708E+00 0.000E+00 0.000E+00 0.000E+00
BIGSUB   1        0   17.24419E+00 0.323E+02 0.000E+00 0.294E+01 0.286E+01 0.114E+03 0.158E+01 0.652E+01 0.198E+00 0.238E+02 0.600E+00 0.769E+00 0.940E-01 0.108E-03 0.390E-03 0.756E-01 0.171E+02 0.402E-01 0.597E-04 .31609E-02 0.525E+02 0.145E+01 0.000E+00 0.000E+00 0.000E+00
BIGSUB   2        0   17.13482E+00 0.323E+02 0.000E+00 0.294E+01 0.285E+01 0.109E+03 0.132E+01 0.714E+01 0.138E+00 0.241E+02 0.574E+00 0.762E+00 0.931E-01 0.210E-03 0.547E-03 0.748E-01 0.169E+02 0.403E-01 0.446E-04 .31019E-02 0.504E+02 0.146E+01 0.000E+00 0.000E+00 0.000E+00
BIGSUB   3        0   17.12733E+00 0.323E+02 0.000E+00 0.294E+01 0.286E+01 0.114E+03 0.166E+01 0.642E+01 0.209E+00 0.237E+02 0.453E+00 0.732E+00 0.895E-01 0.971E-04 0.391E-03 0.717E-01 0.171E+02 0.391E-01 0.637E-04 .29095E-02 0.417E+02 0.145E+01 0.000E+00 0.000E+00 0.000E+00
BIGSUB   4        0   17.18951E+00 0.323E+02 0.000E+00 0.294E+01 0.276E+01 0.100E+03 0.825E+00 0.974E+01 0.499E-01 0.253E+02 0.472E+00 0.480E+00 0.588E-01 0.989E-03 0.162E-02 0.475E-01 0.155E+02 0.344E-01 0.160E-04 .21100E-02 0.394E+02 0.141E+01 0.000E+00 0.000E+00 0.000E+00
BIGSUB   5        0   17.25558E+00 0.323E+02 0.000E+00 0.294E+01 0.284E+01 0.101E+03 0.138E+01 0.796E+01 0.509E-01 0.243E+02 0.394E+00 0.733E+00 0.896E-01 0.264E-03 0.667E-03 0.716E-01 0.162E+02 0.311E-01 0.154E-04 .32232E-02 0.403E+02 0.140E+01 0.000E+00 0.000E+00 0.000E+00
BIGSUB   6        0   17.15319E+00 0.323E+02 0.000E+00 0.294E+01 0.286E+01 0.121E+03 0.243E+01 0.582E+01 0.402E+00 0.232E+02 0.392E+00 0.649E+00 0.793E-01 0.104E-03 0.394E-03 0.634E-01 0.169E+02 0.361E-01 0.138E-03 .24725E-02 0.357E+02 0.146E+01 0.000E+00 0.000E+00 0.000E+00
BIGSUB   7        0   17.13143E+00 0.323E+02 0.000E+00 0.294E+01 0.283E+01 0.116E+03 0.186E+01 0.757E+01 0.278E+00 0.240E+02 0.495E+00 0.658E+00 0.811E-01 0.451E-03 0.848E-03 0.653E-01 0.161E+02 0.391E-01 0.169E-03 .32297E-02 0.463E+02 0.140E+01 0.000E+00 0.000E+00 0.000E+00
BIGSUB   8        0   17.90085E-01 0.323E+02 0.000E+00 0.294E+01 0.286E+01 0.153E+03 0.377E+01 0.447E+01 0.702E+00 0.219E+02 0.167E+00 0.376E+00 0.461E-01 0.174E-03 0.367E-03 0.364E-01 0.167E+02 0.320E-01 0.254E-03 .24463E-02 0.222E+02 0.147E+01 0.000E+00 0.000E+00 0.000E+00
BIGSUB   9        0   17.37142E-01 0.323E+02 0.000E+00 0.294E+01 0.287E+01 0.131E+03 0.405E+01 0.687E+01 0.815E+00 0.224E+02 0.189E+00 0.427E+00 0.522E-01 0.169E-03 0.813E-03 0.413E-01 0.147E+02 0.280E-01 0.315E-03 .18560E-02 0.185E+02 0.148E+01 0.000E+00 0.000E+00 0.000E+00
BIGSUB   1        0   18.24419E+00 0.250E+01 0.000E+00 0.254E+01 0.248E+01 0.113E+03 0.303E-04 0.109E-02 0.203E+00 0.653E+01 0.197E-09 0.827E-08 0.189E-08 0.146E-07 0.257E-06 0.267E-08 0.632E+01 0.138E-01 0.635E-04 .27205E-10 0.000E+00 0.539E+00 0.000E+00 0.000E+00 0.000E+00
BIGSUB   2        0   18.13482E+00 0.250E+01 0.000E+00 0.254E+01 0.247E+01 0.108E+03 0.206E-03 0.171E-03 0.142E+00 0.641E+01 0.584E-09 0.100E-08 0.100E-08 0.325E-08 0.441E-07 0.200E-08 0.626E+01 0.139E-01 0.474E-04 .72695E-13 0.000E+00 0.529E+00 0.000E+00 0.000E+00 0.000E+00
BIGSUB   3        0   18.12733E+00 0.250E+01 0.000E+00 0.253E+01 0.248E+01 0.113E+03 0.000E+00 0.100E-05 0.215E+00 0.654E+01 0.157E-09 0.100E-08 0.100E-08 0.100E-08 0.100E-08 0.200E-08 0.632E+01 0.134E-01 0.676E-04 .19098E-23 0.000E+00 0.540E+00 0.000E+00 0.000E+00 0.000E+00
BIGSUB   4        0   18.18951E+00 0.250E+01 0.000E+00 0.253E+01 0.238E+01 0.995E+02 0.000E+00 0.162E-05 0.513E-01 0.585E+01 0.264E-09 0.186E-07 0.336E-08 0.109E-08 0.117E-08 0.380E-08 0.579E+01 0.120E-01 0.170E-04 .30922E-16 0.000E+00 0.483E+00 0.000E+00 0.000E+00 0.000E+00
BIGSUB   5        0   18.25558E+00 0.250E+01 0.000E+00 0.253E+01 0.247E+01 0.999E+02 0.171E-04 0.192E-02 0.524E-01 0.608E+01 0.264E-09 0.138E-04 0.170E-05 0.282E-07 0.446E-06 0.128E-05 0.602E+01 0.107E-01 0.163E-04 .56218E-08 0.000E+00 0.502E+00 0.000E+00 0.000E+00 0.000E+00
BIGSUB   6        0   18.15319E+00 0.250E+01 0.000E+00 0.254E+01 0.249E+01 0.120E+03 0.565E-03 0.472E-03 0.412E+00 0.666E+01 0.451E-09 0.534E-05 0.674E-06 0.121E-07 0.109E-06 0.518E-06 0.623E+01 0.124E-01 0.146E-03 .33812E-09 0.000E+00 0.550E+00 0.000E+00 0.000E+00 0.000E+00
BIGSUB   7        0   18.13143E+00 0.250E+01 0.000E+00 0.254E+01 0.246E+01 0.116E+03 0.000E+00 0.764E-05 0.285E+00 0.634E+01 0.837E-09 0.162E-06 0.229E-07 0.263E-08 0.188E-08 0.199E-07 0.604E+01 0.138E-01 0.178E-03 .63690E-17 0.000E+00 0.523E+00 0.000E+00 0.000E+00 0.000E+00
BIGSUB   8        0   18.90085E-01 0.250E+01 0.000E+00 0.254E+01 0.251E+01 0.152E+03 0.157E-02 0.451E-02 0.721E+00 0.689E+01 0.115E-08 0.672E-04 0.822E-05 0.127E-05 0.517E-06 0.662E-05 0.614E+01 0.114E-01 0.269E-03 .41477E-08 0.142E-08 0.569E+00 0.000E+00 0.000E+00 0.000E+00
BIGSUB   9        0   18.37142E-01 0.250E+01 0.000E+00 0.254E+01 0.250E+01 0.130E+03 0.115E-01 0.597E-01 0.833E+00 0.633E+01 0.215E-08 0.106E-06 0.138E-07 0.111E-05 0.105E-04 0.117E-07 0.541E+01 0.969E-02 0.330E-03 .44002E-07 0.000E+00 0.523E+00 0.000E+00 0.000E+00 0.000E+00
BIGSUB   1        0   19.24419E+00 0.107E+02 0.000E+00 0.222E+01 0.221E+01 0.115E+03 0.249E+00 0.646E-01 0.208E+00 0.695E+01 0.730E-02 0.794E-02 0.978E-03 0.909E-05 0.454E-05 0.789E-03 0.667E+01 0.102E-01 0.667E-04 .29887E-05 0.106E+00 0.573E+00 0.000E+00 0.000E+00 0.000E+00
BIGSUB   2        0   19.13482E+00 0.107E+02 0.000E+00 0.222E+01 0.220E+01 0.110E+03 0.202E+00 0.877E-01 0.146E+00 0.692E+01 0.572E-02 0.681E-02 0.833E-03 0.275E-04 0.120E-04 0.672E-03 0.668E+01 0.102E-01 0.498E-04 .70332E-07 0.154E-01 0.571E+00 0.000E+00 0.000E+00 0.000E+00
BIGSUB   3        0   19.12733E+00 0.107E+02 0.000E+00 0.222E+01 0.221E+01 0.114E+03 0.261E+00 0.484E-01 0.220E+00 0.696E+01 0.444E-02 0.631E-02 0.771E-03 0.276E-05 0.267E-05 0.620E-03 0.668E+01 0.989E-02 0.711E-04 .24964E-07 0.120E-01 0.575E+00 0.000E+00 0.000E+00 0.000E+00
BIGSUB   4        0   19.18951E+00 0.107E+02 0.000E+00 0.221E+01 0.210E+01 0.101E+03 0.132E+00 0.348E+00 0.526E-01 0.690E+01 0.626E-02 0.599E-02 0.750E-03 0.199E-03 0.756E-04 0.610E-03 0.649E+01 0.992E-02 0.179E-04 .22027E-05 0.130E+00 0.561E+00 0.000E+00 0.000E+00 0.000E+00
BIGSUB   5        0   19.25558E+00 0.107E+02 0.000E+00 0.222E+01 0.219E+01 0.101E+03 0.232E+00 0.115E+00 0.538E-01 0.675E+01 0.548E-02 0.726E-02 0.889E-03 0.380E-04 0.165E-04 0.713E-03 0.658E+01 0.896E-02 0.171E-04 .25595E-05 0.154E+00 0.556E+00 0.000E+00 0.000E+00 0.000E+00
BIGSUB   6        0   19.15319E+00 0.107E+02 0.000E+00 0.222E+01 0.221E+01 0.122E+03 0.454E+00 0.469E-01 0.421E+00 0.703E+01 0.379E-02 0.531E-02 0.649E-03 0.621E-05 0.377E-05 0.522E-03 0.655E+01 0.941E-02 0.152E-03 .22532E-07 0.102E-01 0.582E+00 0.000E+00 0.000E+00 0.000E+00
BIGSUB   7        0   19.13143E+00 0.107E+02 0.000E+00 0.222E+01 0.218E+01 0.117E+03 0.432E+00 0.190E+00 0.292E+00 0.692E+01 0.962E-02 0.116E-01 0.148E-02 0.853E-04 0.316E-04 0.120E-02 0.642E+01 0.106E-01 0.186E-03 .10037E-04 0.300E+00 0.563E+00 0.000E+00 0.000E+00 0.000E+00
BIGSUB   8        0   19.90085E-01 0.107E+02 0.000E+00 0.223E+01 0.221E+01 0.153E+03 0.789E+00 0.298E+00 0.739E+00 0.724E+01 0.163E-01 0.171E-01 0.210E-02 0.495E-04 0.169E-04 0.169E-02 0.617E+01 0.959E-02 0.282E-03 .28854E-03 0.269E+01 0.577E+00 0.000E+00 0.000E+00 0.000E+00
BIGSUB   9        0   19.37142E-01 0.107E+02 0.000E+00 0.223E+01 0.221E+01 0.131E+03 0.951E+00 0.631E+00 0.850E+00 0.716E+01 0.236E-02 0.612E-02 0.748E-03 0.158E-04 0.106E-03 0.587E-03 0.565E+01 0.800E-02 0.344E-03 .18081E-05 0.292E-01 0.590E+00 0.000E+00 0.000E+00 0.000E+00
BIGSUB   1        0   20.24419E+00 0.860E+01 0.000E+00 0.456E+01 0.387E+01 0.113E+03 0.375E+00 0.825E-02 0.213E+00 0.646E+01 0.197E-09 0.379E-03 0.482E-04 0.373E-05 0.954E-06 0.390E-04 0.623E+01 0.122E-01 0.696E-04 .28879E-06 0.255E-08 0.534E+00 0.000E+00 0.000E+00 0.000E+00
BIGSUB   2        0   20.13482E+00 0.860E+01 0.000E+00 0.457E+01 0.385E+01 0.108E+03 0.325E+00 0.136E-01 0.149E+00 0.645E+01 0.584E-09 0.100E-08 0.100E-08 0.965E-05 0.336E-05 0.200E-08 0.628E+01 0.124E-01 0.520E-04 .53005E-09 0.000E+00 0.532E+00 0.000E+00 0.000E+00 0.000E+00
BIGSUB   3        0   20.12733E+00 0.860E+01 0.000E+00 0.457E+01 0.387E+01 0.113E+03 0.393E+00 0.100E-05 0.224E+00 0.647E+01 0.157E-09 0.100E-08 0.100E-08 0.100E-08 0.100E-08 0.200E-08 0.623E+01 0.119E-01 0.741E-04 .19162E-23 0.000E+00 0.534E+00 0.000E+00 0.000E+00 0.000E+00
BIGSUB   4        0   20.18951E+00 0.860E+01 0.000E+00 0.458E+01 0.375E+01 0.991E+02 0.230E+00 0.115E+00 0.539E-01 0.644E+01 0.264E-09 0.317E-03 0.414E-04 0.780E-04 0.265E-04 0.341E-04 0.627E+01 0.119E-01 0.187E-04 .28033E-06 0.481E-08 0.532E+00 0.000E+00 0.000E+00 0.000E+00
BIGSUB   5        0   20.25558E+00 0.860E+01 0.000E+00 0.457E+01 0.385E+01 0.996E+02 0.371E+00 0.227E-01 0.551E-01 0.629E+01 0.249E-09 0.130E-03 0.162E-04 0.140E-04 0.480E-05 0.134E-04 0.621E+01 0.102E-01 0.179E-04 .42903E-06 0.366E-08 0.520E+00 0.000E+00 0.000E+00 0.000E+00
BIGSUB   6        0   20.15319E+00 0.860E+01 0.000E+00 0.456E+01 0.386E+01 0.120E+03 0.562E+00 0.222E-02 0.429E+00 0.652E+01 0.451E-09 0.627E-08 0.164E-08 0.150E-05 0.545E-06 0.249E-08 0.608E+01 0.110E-01 0.158E-03 .84231E-10 0.000E+00 0.539E+00 0.000E+00 0.000E+00 0.000E+00
BIGSUB   7        0   20.13143E+00 0.860E+01 0.000E+00 0.456E+01 0.383E+01 0.115E+03 0.527E+00 0.580E-01 0.298E+00 0.641E+01 0.837E-09 0.126E-02 0.163E-03 0.316E-04 0.107E-04 0.134E-03 0.604E+01 0.125E-01 0.193E-03 .14833E-05 0.136E-07 0.529E+00 0.000E+00 0.000E+00 0.000E+00
BIGSUB   8        0   20.90085E-01 0.860E+01 0.000E+00 0.455E+01 0.386E+01 0.152E+03 0.898E+00 0.185E+00 0.755E+00 0.657E+01 0.115E-08 0.543E-02 0.668E-03 0.410E-04 0.982E-05 0.539E-03 0.560E+01 0.100E-01 0.294E-03 .79202E-04 0.632E-07 0.542E+00 0.000E+00 0.000E+00 0.000E+00
BIGSUB   9        0   20.37142E-01 0.860E+01 0.000E+00 0.455E+01 0.391E+01 0.130E+03 0.990E+00 0.436E+00 0.866E+00 0.652E+01 0.215E-08 0.341E-03 0.416E-04 0.559E-05 0.762E-04 0.322E-04 0.518E+01 0.879E-02 0.356E-03 .16629E-06 0.379E-08 0.538E+00 0.000E+00 0.000E+00 0.000E+00
BIGSUB   1        0   21.24419E+00 0.180E+01 0.000E+00 0.444E+01 0.326E+01 0.111E+03 0.904E-05 0.109E-04 0.217E+00 0.260E+01 0.197E-09 0.105E-08 0.101E-08 0.121E-08 0.334E-08 0.200E-08 0.237E+01 0.422E-02 0.718E-04 .39751E-16 0.000E+00 0.215E+00 0.000E+00 0.000E+00 0.000E+00
BIGSUB   2        0   21.13482E+00 0.180E+01 0.000E+00 0.444E+01 0.324E+01 0.106E+03 0.000E+00 0.134E-05 0.152E+00 0.256E+01 0.584E-09 0.100E-08 0.100E-08 0.100E-08 0.108E-08 0.200E-08 0.240E+01 0.429E-02 0.536E-04 .65721E-21 0.000E+00 0.211E+00 0.000E+00 0.000E+00 0.000E+00
BIGSUB   3        0   21.12733E+00 0.180E+01 0.000E+00 0.444E+01 0.326E+01 0.111E+03 0.000E+00 0.100E-05 0.229E+00 0.261E+01 0.157E-09 0.100E-08 0.100E-08 0.100E-08 0.100E-08 0.200E-08 0.237E+01 0.409E-02 0.764E-04 .12086E-22 0.000E+00 0.216E+00 0.000E+00 0.000E+00 0.000E+00
BIGSUB   4        0   21.18951E+00 0.180E+01 0.000E+00 0.444E+01 0.315E+01 0.974E+02 0.000E+00 0.101E-05 0.549E-01 0.246E+01 0.264E-09 0.100E-08 0.100E-08 0.101E-08 0.100E-08 0.200E-08 0.240E+01 0.418E-02 0.193E-04 .20518E-22 0.000E+00 0.203E+00 0.000E+00 0.000E+00 0.000E+00
BIGSUB   5        0   21.25558E+00 0.180E+01 0.000E+00 0.444E+01 0.322E+01 0.978E+02 0.512E-05 0.275E-03 0.562E-01 0.243E+01 0.249E-09 0.186E-06 0.236E-07 0.548E-08 0.679E-07 0.190E-07 0.236E+01 0.354E-02 0.184E-04 .75858E-10 0.000E+00 0.201E+00 0.000E+00 0.000E+00 0.000E+00
BIGSUB   6        0   21.15319E+00 0.180E+01 0.000E+00 0.444E+01 0.328E+01 0.118E+03 0.000E+00 0.200E-05 0.437E+00 0.276E+01 0.451E-09 0.119E-08 0.102E-08 0.149E-08 0.124E-08 0.202E-08 0.231E+01 0.380E-02 0.162E-03 .14289E-17 0.000E+00 0.228E+00 0.000E+00 0.000E+00 0.000E+00
BIGSUB   7        0   21.13143E+00 0.180E+01 0.000E+00 0.444E+01 0.324E+01 0.114E+03 0.000E+00 0.102E-05 0.303E+00 0.266E+01 0.837E-09 0.296E-08 0.121E-08 0.100E-08 0.100E-08 0.214E-08 0.234E+01 0.446E-02 0.198E-03 .18969E-22 0.000E+00 0.220E+00 0.000E+00 0.000E+00 0.000E+00
BIGSUB   8        0   21.90085E-01 0.180E+01 0.000E+00 0.445E+01 0.335E+01 0.150E+03 0.000E+00 0.212E-03 0.769E+00 0.293E+01 0.115E-08 0.230E-07 0.362E-08 0.554E-08 0.553E-07 0.406E-08 0.213E+01 0.369E-02 0.304E-03 .64516E-13 0.000E+00 0.243E+00 0.000E+00 0.000E+00 0.000E+00
BIGSUB   9        0   21.37142E-01 0.180E+01 0.000E+00 0.445E+01 0.340E+01 0.128E+03 0.111E-01 0.259E-01 0.880E+00 0.291E+01 0.215E-08 0.100E-08 0.100E-08 0.568E-06 0.461E-05 0.200E-08 0.197E+01 0.307E-02 0.365E-03 .22460E-07 0.000E+00 0.240E+00 0.000E+00 0.000E+00 0.000E+00
BIGSUB   1        0   22.24419E+00 0.810E+01 0.000E+00 0.436E+01 0.372E+01 0.112E+03 0.226E-02 0.588E-02 0.220E+00 0.328E+01 0.179E-03 0.214E-03 0.272E-04 0.354E-05 0.650E-06 0.220E-04 0.304E+01 0.160E-02 0.734E-04 .27812E-06 0.111E-01 0.272E+00 0.000E+00 0.000E+00 0.000E+00
BIGSUB   2        0   22.13482E+00 0.810E+01 0.000E+00 0.436E+01 0.371E+01 0.107E+03 0.569E-02 0.721E-02 0.154E+00 0.326E+01 0.584E-09 0.100E-08 0.100E-08 0.693E-05 0.179E-05 0.200E-08 0.309E+01 0.167E-02 0.548E-04 .39654E-09 0.000E+00 0.271E+00 0.000E+00 0.000E+00 0.000E+00
BIGSUB   3        0   22.12733E+00 0.810E+01 0.000E+00 0.436E+01 0.372E+01 0.112E+03 0.000E+00 0.100E-05 0.232E+00 0.328E+01 0.157E-09 0.100E-08 0.100E-08 0.100E-08 0.100E-08 0.200E-08 0.304E+01 0.156E-02 0.780E-04 .74931E-23 0.000E+00 0.273E+00 0.000E+00 0.000E+00 0.000E+00
BIGSUB   4        0   22.18951E+00 0.810E+01 0.000E+00 0.437E+01 0.361E+01 0.983E+02 0.895E-03 0.603E-01 0.558E-01 0.327E+01 0.223E-03 0.136E-03 0.176E-04 0.547E-04 0.139E-04 0.146E-04 0.315E+01 0.196E-02 0.198E-04 .26444E-06 0.206E-01 0.271E+00 0.000E+00 0.000E+00 0.000E+00
BIGSUB   5        0   22.25558E+00 0.810E+01 0.000E+00 0.436E+01 0.370E+01 0.988E+02 0.634E-02 0.127E-01 0.571E-01 0.312E+01 0.261E-03 0.651E-04 0.796E-05 0.998E-05 0.251E-05 0.662E-05 0.304E+01 0.150E-02 0.188E-04 .41651E-06 0.274E-01 0.259E+00 0.000E+00 0.000E+00 0.000E+00
BIGSUB   6        0   22.15319E+00 0.810E+01 0.000E+00 0.436E+01 0.372E+01 0.119E+03 0.107E-01 0.118E-02 0.442E+00 0.339E+01 0.451E-09 0.101E-08 0.100E-08 0.109E-05 0.292E-06 0.200E-08 0.293E+01 0.151E-02 0.165E-03 .57118E-10 0.000E+00 0.282E+00 0.000E+00 0.000E+00 0.000E+00
BIGSUB   7        0   22.13143E+00 0.810E+01 0.000E+00 0.436E+01 0.369E+01 0.115E+03 0.643E-01 0.335E-01 0.308E+00 0.334E+01 0.468E-03 0.547E-03 0.702E-04 0.245E-04 0.586E-05 0.578E-04 0.299E+01 0.194E-02 0.202E-03 .14552E-05 0.406E-01 0.276E+00 0.000E+00 0.000E+00 0.000E+00
BIGSUB   8        0   22.90085E-01 0.810E+01 0.000E+00 0.436E+01 0.373E+01 0.151E+03 0.376E-01 0.159E+00 0.781E+00 0.358E+01 0.280E-02 0.346E-02 0.425E-03 0.477E-04 0.800E-05 0.343E-03 0.261E+01 0.166E-02 0.311E-03 .65358E-04 0.605E+00 0.284E+00 0.000E+00 0.000E+00 0.000E+00
BIGSUB   9        0   22.37142E-01 0.810E+01 0.000E+00 0.436E+01 0.377E+01 0.129E+03 0.475E-01 0.394E+00 0.891E+00 0.378E+01 0.323E-04 0.148E-03 0.181E-04 0.614E-05 0.697E-04 0.140E-04 0.246E+01 0.141E-02 0.371E-03 .19987E-06 0.477E-03 0.314E+00 0.000E+00 0.000E+00 0.000E+00
BIGSUB   1        0   23.24419E+00 0.000E+00 0.000E+00 0.418E+01 0.221E+01 0.110E+03 0.382E-05 0.137E-05 0.223E+00 0.128E+01 0.197E-09 0.100E-08 0.100E-08 0.101E-08 0.109E-08 0.200E-08 0.104E+01 0.551E-03 0.744E-04 .21522E-20 0.000E+00 0.105E+00 0.000E+00 0.000E+00 0.000E+00
BIGSUB   2        0   23.13482E+00 0.000E+00 0.000E+00 0.418E+01 0.219E+01 0.105E+03 0.000E+00 0.100E-05 0.156E+00 0.123E+01 0.584E-09 0.100E-08 0.100E-08 0.100E-08 0.100E-08 0.200E-08 0.106E+01 0.578E-03 0.556E-04 .59012E-22 0.000E+00 0.101E+00 0.000E+00 0.000E+00 0.000E+00
BIGSUB   3        0   23.12733E+00 0.000E+00 0.000E+00 0.418E+01 0.221E+01 0.110E+03 0.000E+00 0.100E-05 0.235E+00 0.129E+01 0.157E-09 0.100E-08 0.100E-08 0.100E-08 0.100E-08 0.200E-08 0.104E+01 0.537E-03 0.791E-04 .55243E-22 0.000E+00 0.106E+00 0.000E+00 0.000E+00 0.000E+00
BIGSUB   4        0   23.18951E+00 0.000E+00 0.000E+00 0.417E+01 0.211E+01 0.961E+02 0.000E+00 0.101E-05 0.565E-01 0.114E+01 0.264E-09 0.100E-08 0.100E-08 0.101E-08 0.100E-08 0.200E-08 0.108E+01 0.673E-03 0.201E-04 .66744E-22 0.000E+00 0.942E-01 0.000E+00 0.000E+00 0.000E+00
BIGSUB   5        0   23.25558E+00 0.000E+00 0.000E+00 0.418E+01 0.217E+01 0.966E+02 0.216E-05 0.100E-03 0.579E-01 0.111E+01 0.249E-09 0.678E-07 0.917E-08 0.262E-08 0.253E-07 0.815E-08 0.105E+01 0.517E-03 0.190E-04 .40120E-11 0.000E+00 0.916E-01 0.000E+00 0.000E+00 0.000E+00
BIGSUB   6        0   23.15319E+00 0.000E+00 0.000E+00 0.418E+01 0.222E+01 0.117E+03 0.000E+00 0.154E-05 0.447E+00 0.147E+01 0.451E-09 0.100E-08 0.100E-08 0.148E-08 0.113E-08 0.200E-08 0.101E+01 0.519E-03 0.166E-03 .50921E-18 0.000E+00 0.121E+00 0.000E+00 0.000E+00 0.000E+00
BIGSUB   7        0   23.13143E+00 0.000E+00 0.000E+00 0.418E+01 0.219E+01 0.112E+03 0.000E+00 0.100E-05 0.312E+00 0.137E+01 0.837E-09 0.182E-08 0.106E-08 0.100E-08 0.100E-08 0.203E-08 0.105E+01 0.730E-03 0.204E-03 .57058E-22 0.000E+00 0.113E+00 0.000E+00 0.000E+00 0.000E+00
BIGSUB   8        0   23.90085E-01 0.000E+00 0.000E+00 0.418E+01 0.230E+01 0.149E+03 0.000E+00 0.772E-04 0.791E+00 0.173E+01 0.115E-08 0.151E-07 0.270E-08 0.229E-08 0.207E-07 0.329E-08 0.910E+00 0.659E-03 0.315E-03 .30866E-14 0.000E+00 0.143E+00 0.000E+00 0.000E+00 0.000E+00
BIGSUB   9        0   23.37142E-01 0.000E+00 0.000E+00 0.418E+01 0.237E+01 0.126E+03 0.100E-01 0.128E-02 0.900E+00 0.179E+01 0.215E-08 0.100E-08 0.100E-08 0.166E-07 0.230E-06 0.200E-08 0.855E+00 0.499E-03 0.375E-03 .52159E-09 0.000E+00 0.148E+00 0.000E+00 0.000E+00 0.000E+00
BIGSUB   1        0   24.24419E+00 0.000E+00 0.000E+00 0.475E+01 0.197E+01 0.108E+03 0.000E+00 0.107E-05 0.225E+00 0.594E+00 0.197E-09 0.100E-08 0.100E-08 0.100E-08 0.102E-08 0.200E-08 0.359E+00 0.189E-03 0.750E-04 .43951E-21 0.000E+00 0.494E-01 0.000E+00 0.000E+00 0.000E+00
BIGSUB   2        0   24.13482E+00 0.000E+00 0.000E+00 0.475E+01 0.194E+01 0.103E+03 0.000E+00 0.100E-05 0.158E+00 0.531E+00 0.584E-09 0.100E-08 0.100E-08 0.100E-08 0.100E-08 0.200E-08 0.365E+00 0.200E-03 0.560E-04 .46003E-21 0.000E+00 0.441E-01 0.000E+00 0.000E+00 0.000E+00
BIGSUB   3        0   24.12733E+00 0.000E+00 0.000E+00 0.475E+01 0.197E+01 0.108E+03 0.000E+00 0.100E-05 0.237E+00 0.606E+00 0.157E-09 0.100E-08 0.100E-08 0.100E-08 0.100E-08 0.200E-08 0.359E+00 0.185E-03 0.796E-04 .42096E-21 0.000E+00 0.504E-01 0.000E+00 0.000E+00 0.000E+00
BIGSUB   4        0   24.18951E+00 0.000E+00 0.000E+00 0.475E+01 0.188E+01 0.943E+02 0.000E+00 0.100E-05 0.571E-01 0.432E+00 0.264E-09 0.100E-08 0.100E-08 0.100E-08 0.100E-08 0.200E-08 0.372E+00 0.232E-03 0.202E-04 .52323E-21 0.000E+00 0.359E-01 0.000E+00 0.000E+00 0.000E+00
BIGSUB   5        0   24.25558E+00 0.000E+00 0.000E+00 0.475E+01 0.192E+01 0.947E+02 0.435E-08 0.609E-04 0.585E-01 0.425E+00 0.249E-09 0.413E-07 0.593E-08 0.198E-08 0.156E-07 0.571E-08 0.359E+00 0.178E-03 0.192E-04 .89601E-12 0.000E+00 0.353E-01 0.000E+00 0.000E+00 0.000E+00
BIGSUB   6        0   24.15319E+00 0.000E+00 0.000E+00 0.475E+01 0.199E+01 0.115E+03 0.000E+00 0.100E-05 0.451E+00 0.815E+00 0.451E-09 0.100E-08 0.100E-08 0.100E-08 0.100E-08 0.200E-08 0.347E+00 0.179E-03 0.167E-03 .35943E-21 0.000E+00 0.678E-01 0.000E+00 0.000E+00 0.000E+00
BIGSUB   7        0   24.13143E+00 0.000E+00 0.000E+00 0.475E+01 0.196E+01 0.111E+03 0.000E+00 0.100E-05 0.315E+00 0.701E+00 0.837E-09 0.100E-08 0.100E-08 0.100E-08 0.100E-08 0.200E-08 0.374E+00 0.288E-03 0.205E-03 .40960E-21 0.000E+00 0.583E-01 0.000E+00 0.000E+00 0.000E+00
BIGSUB   8        0   24.90085E-01 0.000E+00 0.000E+00 0.474E+01 0.208E+01 0.147E+03 0.000E+00 0.465E-04 0.799E+00 0.115E+01 0.115E-08 0.999E-09 0.999E-09 0.170E-08 0.129E-07 0.200E-08 0.322E+00 0.280E-03 0.318E-03 .67397E-15 0.000E+00 0.956E-01 0.000E+00 0.000E+00 0.000E+00
BIGSUB   9        0   24.37142E-01 0.000E+00 0.000E+00 0.474E+01 0.208E+01 0.124E+03 0.946E-02 0.572E-05 0.907E+00 0.124E+01 0.215E-08 0.100E-08 0.100E-08 0.100E-08 0.179E-08 0.200E-08 0.300E+00 0.181E-03 0.376E-03 .76055E-14 0.000E+00 0.103E+00 0.000E+00 0.000E+00 0.000E+00
BIGSUB   1        0   25.24419E+00 0.660E+01 0.000E+00 0.538E+01 0.357E+01 0.109E+03 0.000E+00 0.181E-02 0.227E+00 0.199E+01 0.682E-04 0.748E-04 0.945E-05 0.226E-05 0.182E-06 0.762E-05 0.175E+01 0.230E-03 0.750E-04 .40627E-07 0.263E-02 0.163E+00 0.000E+00 0.000E+00 0.000E+00
BIGSUB   2        0   25.13482E+00 0.660E+01 0.000E+00 0.538E+01 0.354E+01 0.103E+03 0.000E+00 0.167E-03 0.159E+00 0.196E+01 0.584E-09 0.100E-08 0.100E-08 0.352E-06 0.454E-07 0.200E-08 0.179E+01 0.287E-03 0.560E-04 .19531E-12 0.000E+00 0.160E+00 0.000E+00 0.000E+00 0.000E+00
BIGSUB   3        0   25.12733E+00 0.660E+01 0.000E+00 0.538E+01 0.357E+01 0.108E+03 0.000E+00 0.100E-05 0.239E+00 0.200E+01 0.157E-09 0.100E-08 0.100E-08 0.100E-08 0.100E-08 0.200E-08 0.175E+01 0.229E-03 0.797E-04 .20597E-22 0.000E+00 0.163E+00 0.000E+00 0.000E+00 0.000E+00
BIGSUB   4        0   25.18951E+00 0.660E+01 0.000E+00 0.538E+01 0.346E+01 0.948E+02 0.000E+00 0.184E-02 0.576E-01 0.190E+01 0.126E-03 0.241E-04 0.295E-05 0.234E-05 0.255E-06 0.247E-05 0.184E+01 0.684E-03 0.203E-04 .11399E-06 0.105E-01 0.156E+00 0.000E+00 0.000E+00 0.000E+00
BIGSUB   5        0   25.25558E+00 0.660E+01 0.000E+00 0.538E+01 0.356E+01 0.953E+02 0.000E+00 0.150E-02 0.590E-01 0.179E+01 0.166E-03 0.392E-04 0.479E-05 0.102E-05 0.896E-07 0.399E-05 0.172E+01 0.297E-03 0.192E-04 .18487E-06 0.142E-01 0.147E+00 0.000E+00 0.000E+00 0.000E+00
BIGSUB   6        0   25.15319E+00 0.660E+01 0.000E+00 0.538E+01 0.362E+01 0.116E+03 0.000E+00 0.318E-04 0.454E+00 0.212E+01 0.451E-09 0.100E-08 0.100E-08 0.598E-07 0.897E-08 0.200E-08 0.165E+01 0.226E-03 0.166E-03 .13126E-13 0.000E+00 0.174E+00 0.000E+00 0.000E+00 0.000E+00
BIGSUB   7        0   25.13143E+00 0.660E+01 0.000E+00 0.538E+01 0.357E+01 0.111E+03 0.000E+00 0.402E-02 0.317E+00 0.204E+01 0.173E-03 0.109E-03 0.133E-04 0.332E-05 0.308E-06 0.110E-04 0.171E+01 0.420E-03 0.205E-03 .73843E-06 0.217E-01 0.167E+00 0.000E+00 0.000E+00 0.000E+00
BIGSUB   8        0   25.90085E-01 0.660E+01 0.000E+00 0.537E+01 0.374E+01 0.148E+03 0.000E+00 0.956E-01 0.805E+00 0.233E+01 0.203E-02 0.248E-02 0.304E-03 0.584E-04 0.443E-05 0.245E-03 0.140E+01 0.291E-03 0.318E-03 .50808E-04 0.459E+00 0.183E+00 0.000E+00 0.000E+00 0.000E+00
BIGSUB   9        0   25.37142E-01 0.660E+01 0.000E+00 0.537E+01 0.381E+01 0.125E+03 0.887E-02 0.287E+00 0.912E+00 0.253E+01 0.215E-08 0.100E-08 0.100E-08 0.657E-05 0.517E-04 0.200E-08 0.129E+01 0.260E-03 0.375E-03 .25305E-06 0.000E+00 0.207E+00 0.000E+00 0.000E+00 0.000E+00
BIGSUB   1        0   26.24419E+00 0.000E+00 0.000E+00 0.498E+01 0.211E+01 0.106E+03 0.000E+00 0.100E-05 0.228E+00 0.840E+00 0.197E-09 0.100E-08 0.100E-08 0.100E-08 0.100E-08 0.200E-08 0.602E+00 0.789E-04 0.747E-04 .15072E-21 0.000E+00 0.688E-01 0.000E+00 0.000E+00 0.000E+00
BIGSUB   2        0   26.13482E+00 0.000E+00 0.000E+00 0.498E+01 0.208E+01 0.101E+03 0.000E+00 0.100E-05 0.160E+00 0.783E+00 0.584E-09 0.100E-08 0.100E-08 0.100E-08 0.100E-08 0.200E-08 0.616E+00 0.994E-04 0.558E-04 .16252E-21 0.000E+00 0.641E-01 0.000E+00 0.000E+00 0.000E+00
BIGSUB   3        0   26.12733E+00 0.000E+00 0.000E+00 0.499E+01 0.211E+01 0.106E+03 0.000E+00 0.100E-05 0.240E+00 0.851E+00 0.157E-09 0.100E-08 0.100E-08 0.100E-08 0.100E-08 0.200E-08 0.600E+00 0.786E-04 0.793E-04 .14989E-21 0.000E+00 0.696E-01 0.000E+00 0.000E+00 0.000E+00
BIGSUB   4        0   26.18951E+00 0.000E+00 0.000E+00 0.499E+01 0.202E+01 0.928E+02 0.000E+00 0.100E-05 0.579E-01 0.694E+00 0.264E-09 0.100E-08 0.100E-08 0.100E-08 0.100E-08 0.200E-08 0.633E+00 0.235E-03 0.202E-04 .18116E-21 0.000E+00 0.568E-01 0.000E+00 0.000E+00 0.000E+00
BIGSUB   5        0   26.25558E+00 0.000E+00 0.000E+00 0.499E+01 0.208E+01 0.932E+02 0.000E+00 0.228E-04 0.594E-01 0.659E+00 0.249E-09 0.156E-07 0.279E-08 0.135E-08 0.632E-08 0.335E-08 0.592E+00 0.102E-03 0.191E-04 .43775E-13 0.000E+00 0.539E-01 0.000E+00 0.000E+00 0.000E+00
BIGSUB   6        0   26.15319E+00 0.000E+00 0.000E+00 0.498E+01 0.215E+01 0.114E+03 0.000E+00 0.104E-05 0.455E+00 0.104E+01 0.451E-09 0.100E-08 0.100E-08 0.107E-08 0.101E-08 0.200E-08 0.567E+00 0.784E-04 0.165E-03 .57022E-21 0.000E+00 0.852E-01 0.000E+00 0.000E+00 0.000E+00
BIGSUB   7        0   26.13143E+00 0.000E+00 0.000E+00 0.498E+01 0.211E+01 0.109E+03 0.000E+00 0.100E-05 0.318E+00 0.927E+00 0.837E-09 0.100E-08 0.100E-08 0.100E-08 0.100E-08 0.200E-08 0.596E+00 0.159E-03 0.204E-03 .14746E-21 0.000E+00 0.759E-01 0.000E+00 0.000E+00 0.000E+00
BIGSUB   8        0   26.90085E-01 0.000E+00 0.000E+00 0.498E+01 0.227E+01 0.145E+03 0.000E+00 0.179E-04 0.809E+00 0.133E+01 0.115E-08 0.121E-07 0.230E-08 0.145E-08 0.531E-08 0.299E-08 0.488E+00 0.121E-03 0.317E-03 .32437E-16 0.000E+00 0.109E+00 0.000E+00 0.000E+00 0.000E+00
BIGSUB   9        0   26.37142E-01 0.000E+00 0.000E+00 0.498E+01 0.229E+01 0.123E+03 0.817E-02 0.957E-03 0.915E+00 0.140E+01 0.215E-08 0.100E-08 0.100E-08 0.221E-07 0.173E-06 0.200E-08 0.448E+00 0.939E-04 0.372E-03 .65660E-09 0.000E+00 0.115E+00 0.000E+00 0.000E+00 0.000E+00
BIGSUB   1        0   27.24419E+00 0.840E+01 0.000E+00 0.500E+01 0.351E+01 0.108E+03 0.300E-03 0.583E-02 0.229E+00 0.264E+01 0.132E-03 0.169E-03 0.215E-04 0.554E-05 0.612E-06 0.174E-04 0.240E+01 0.213E-03 0.740E-04 .28065E-06 0.988E-02 0.216E+00 0.000E+00 0.000E+00 0.000E+00
BIGSUB   2        0   27.13482E+00 0.840E+01 0.000E+00 0.500E+01 0.348E+01 0.103E+03 0.000E+00 0.665E-02 0.160E+00 0.263E+01 0.584E-09 0.100E-08 0.100E-08 0.100E-04 0.168E-05 0.200E-08 0.245E+01 0.275E-03 0.553E-04 .85234E-09 0.000E+00 0.215E+00 0.000E+00 0.000E+00 0.000E+00
BIGSUB   3        0   27.12733E+00 0.840E+01 0.000E+00 0.500E+01 0.352E+01 0.108E+03 0.000E+00 0.100E-05 0.241E+00 0.264E+01 0.157E-09 0.100E-08 0.100E-08 0.100E-08 0.100E-08 0.200E-08 0.239E+01 0.214E-03 0.786E-04 .11506E-22 0.000E+00 0.217E+00 0.000E+00 0.000E+00 0.000E+00
BIGSUB   4        0   27.18951E+00 0.840E+01 0.000E+00 0.501E+01 0.341E+01 0.942E+02 0.000E+00 0.542E-01 0.581E-01 0.262E+01 0.162E-03 0.987E-04 0.128E-04 0.768E-04 0.125E-04 0.106E-04 0.251E+01 0.693E-03 0.200E-04 .25215E-06 0.177E-01 0.215E+00 0.000E+00 0.000E+00 0.000E+00
BIGSUB   5        0   27.25558E+00 0.840E+01 0.000E+00 0.500E+01 0.355E+01 0.948E+02 0.727E-03 0.115E-01 0.596E-01 0.243E+01 0.191E-03 0.510E-04 0.624E-05 0.142E-04 0.223E-05 0.521E-05 0.236E+01 0.289E-03 0.189E-04 .39401E-06 0.236E-01 0.199E+00 0.000E+00 0.000E+00 0.000E+00
BIGSUB   6        0   27.15319E+00 0.840E+01 0.000E+00 0.500E+01 0.358E+01 0.115E+03 0.184E-03 0.111E-02 0.456E+00 0.273E+01 0.451E-09 0.100E-08 0.100E-08 0.157E-05 0.278E-06 0.200E-08 0.225E+01 0.211E-03 0.163E-03 .11251E-09 0.000E+00 0.224E+00 0.000E+00 0.000E+00 0.000E+00
BIGSUB   7        0   27.13143E+00 0.840E+01 0.000E+00 0.500E+01 0.351E+01 0.111E+03 0.000E+00 0.329E-01 0.319E+00 0.269E+01 0.338E-03 0.425E-03 0.545E-04 0.370E-04 0.569E-05 0.451E-04 0.233E+01 0.392E-03 0.202E-03 .14009E-05 0.353E-01 0.219E+00 0.000E+00 0.000E+00 0.000E+00
BIGSUB   8        0   27.90085E-01 0.840E+01 0.000E+00 0.500E+01 0.369E+01 0.147E+03 0.000E+00 0.166E+00 0.812E+00 0.291E+01 0.215E-02 0.266E-02 0.327E-03 0.811E-04 0.794E-05 0.264E-03 0.190E+01 0.238E-03 0.314E-03 .62182E-04 0.516E+00 0.225E+00 0.000E+00 0.000E+00 0.000E+00
BIGSUB   9        0   27.37142E-01 0.840E+01 0.000E+00 0.500E+01 0.383E+01 0.124E+03 0.756E-02 0.415E+00 0.917E+00 0.312E+01 0.278E-04 0.127E-03 0.156E-04 0.110E-04 0.743E-04 0.120E-04 0.175E+01 0.242E-03 0.367E-03 .34125E-06 0.588E-03 0.255E+00 0.000E+00 0.000E+00 0.000E+00
BIGSUB   1        0   28.24419E+00 0.282E+02 0.000E+00 0.448E+01 0.381E+01 0.112E+03 0.298E+00 0.404E+01 0.230E+00 0.156E+02 0.511E+00 0.584E+00 0.714E-01 0.238E-03 0.216E-03 0.576E-01 0.113E+02 0.953E-02 0.735E-04 .23738E-02 0.408E+02 0.969E+00 0.000E+00 0.000E+00 0.000E+00
BIGSUB   2        0   28.13482E+00 0.282E+02 0.000E+00 0.448E+01 0.379E+01 0.107E+03 0.200E+00 0.450E+01 0.161E+00 0.158E+02 0.489E+00 0.582E+00 0.712E-01 0.367E-03 0.333E-03 0.573E-01 0.111E+02 0.913E-02 0.549E-04 .22949E-02 0.389E+02 0.963E+00 0.000E+00 0.000E+00 0.000E+00
BIGSUB   3        0   28.12733E+00 0.282E+02 0.000E+00 0.449E+01 0.381E+01 0.112E+03 0.334E+00 0.396E+01 0.242E+00 0.155E+02 0.384E+00 0.557E+00 0.680E-01 0.222E-03 0.217E-03 0.546E-01 0.113E+02 0.963E-02 0.780E-04 .21428E-02 0.321E+02 0.973E+00 0.000E+00 0.000E+00 0.000E+00
BIGSUB   4        0   28.18951E+00 0.282E+02 0.000E+00 0.450E+01 0.370E+01 0.979E+02 0.626E-01 0.662E+01 0.584E-01 0.168E+02 0.405E+00 0.374E+00 0.459E-01 0.132E-02 0.112E-02 0.372E-01 0.101E+02 0.984E-02 0.199E-04 .16479E-02 0.310E+02 0.888E+00 0.000E+00 0.000E+00 0.000E+00
BIGSUB   5        0   28.25558E+00 0.282E+02 0.000E+00 0.449E+01 0.379E+01 0.989E+02 0.605E-01 0.513E+01 0.599E-01 0.159E+02 0.340E+00 0.576E+00 0.704E-01 0.444E-03 0.422E-03 0.564E-01 0.107E+02 0.896E-02 0.188E-04 .24628E-02 0.319E+02 0.916E+00 0.000E+00 0.000E+00 0.000E+00
BIGSUB   6        0   28.15319E+00 0.282E+02 0.000E+00 0.448E+01 0.381E+01 0.119E+03 0.833E+00 0.355E+01 0.458E+00 0.153E+02 0.331E+00 0.487E+00 0.595E-01 0.216E-03 0.221E-03 0.477E-01 0.113E+02 0.105E-01 0.162E-03 .18167E-02 0.274E+02 0.992E+00 0.000E+00 0.000E+00 0.000E+00
BIGSUB   7        0   28.13143E+00 0.282E+02 0.000E+00 0.448E+01 0.377E+01 0.115E+03 0.575E+00 0.495E+01 0.321E+00 0.158E+02 0.425E+00 0.508E+00 0.628E-01 0.642E-03 0.550E-03 0.508E-01 0.105E+02 0.959E-02 0.201E-03 .26482E-02 0.372E+02 0.922E+00 0.000E+00 0.000E+00 0.000E+00
BIGSUB   8        0   28.90085E-01 0.282E+02 0.000E+00 0.447E+01 0.381E+01 0.152E+03 0.132E+01 0.285E+01 0.815E+00 0.148E+02 0.140E+00 0.260E+00 0.320E-01 0.269E-03 0.206E-03 0.254E-01 0.112E+02 0.124E-01 0.313E-03 .23301E-02 0.198E+02 0.101E+01 0.000E+00 0.000E+00 0.000E+00
BIGSUB   9        0   28.37142E-01 0.282E+02 0.000E+00 0.447E+01 0.385E+01 0.128E+03 0.203E+01 0.475E+01 0.920E+00 0.157E+02 0.160E+00 0.329E+00 0.402E-01 0.268E-03 0.589E-03 0.318E-01 0.998E+01 0.114E-01 0.365E-03 .15247E-02 0.146E+02 0.107E+01 0.000E+00 0.000E+00 0.000E+00
BIGSUB   1        0   29.24419E+00 0.709E+02 0.000E+00 0.324E+01 0.305E+01 0.114E+03 0.227E+01 0.312E+02 0.233E+00 0.568E+02 0.293E+01 0.438E+01 0.535E+00 0.527E-03 0.178E-02 0.429E+00 0.253E+02 0.481E-01 0.754E-04 .56695E-01 0.437E+03 0.216E+01 0.000E+00 0.000E+00 0.000E+00
BIGSUB   2        0   29.13482E+00 0.709E+02 0.000E+00 0.324E+01 0.304E+01 0.109E+03 0.176E+01 0.328E+02 0.163E+00 0.574E+02 0.279E+01 0.422E+01 0.516E+00 0.749E-03 0.229E-02 0.414E+00 0.245E+02 0.471E-01 0.564E-04 .56121E-01 0.423E+03 0.217E+01 0.000E+00 0.000E+00 0.000E+00
BIGSUB   3        0   29.12733E+00 0.709E+02 0.000E+00 0.325E+01 0.305E+01 0.113E+03 0.238E+01 0.311E+02 0.245E+00 0.567E+02 0.224E+01 0.421E+01 0.515E+00 0.514E-03 0.186E-02 0.411E+00 0.254E+02 0.471E-01 0.800E-04 .54260E-01 0.356E+03 0.217E+01 0.000E+00 0.000E+00 0.000E+00
BIGSUB   4        0   29.18951E+00 0.709E+02 0.000E+00 0.325E+01 0.297E+01 0.999E+02 0.851E+00 0.384E+02 0.591E-01 0.595E+02 0.223E+01 0.254E+01 0.311E+00 0.230E-02 0.580E-02 0.252E+00 0.210E+02 0.402E-01 0.204E-04 .35574E-01 0.319E+03 0.193E+01 0.000E+00 0.000E+00 0.000E+00
BIGSUB   5        0   29.25558E+00 0.709E+02 0.000E+00 0.325E+01 0.304E+01 0.100E+03 0.177E+01 0.350E+02 0.607E-01 0.582E+02 0.189E+01 0.393E+01 0.480E+00 0.850E-03 0.263E-02 0.384E+00 0.232E+02 0.426E-01 0.192E-04 .55880E-01 0.327E+03 0.203E+01 0.000E+00 0.000E+00 0.000E+00
BIGSUB   6        0   29.15319E+00 0.709E+02 0.000E+00 0.324E+01 0.305E+01 0.121E+03 0.377E+01 0.295E+02 0.463E+00 0.555E+02 0.198E+01 0.394E+01 0.481E+00 0.505E-03 0.202E-02 0.383E+00 0.256E+02 0.458E-01 0.166E-03 .48257E-01 0.312E+03 0.222E+01 0.000E+00 0.000E+00 0.000E+00
BIGSUB   7        0   29.13143E+00 0.709E+02 0.000E+00 0.324E+01 0.302E+01 0.116E+03 0.250E+01 0.334E+02 0.324E+00 0.572E+02 0.238E+01 0.372E+01 0.457E+00 0.120E-02 0.326E-02 0.367E+00 0.234E+02 0.470E-01 0.204E-03 .50104E-01 0.362E+03 0.206E+01 0.000E+00 0.000E+00 0.000E+00
BIGSUB   8        0   29.90085E-01 0.709E+02 0.000E+00 0.324E+01 0.305E+01 0.153E+03 0.618E+01 0.250E+02 0.826E+00 0.530E+02 0.994E+00 0.313E+01 0.383E+00 0.578E-03 0.221E-02 0.300E+00 0.271E+02 0.489E-01 0.321E-03 .29014E-01 0.147E+03 0.239E+01 0.000E+00 0.000E+00 0.000E+00
BIGSUB   9        0   29.37142E-01 0.709E+02 0.000E+00 0.324E+01 0.306E+01 0.129E+03 0.653E+01 0.304E+02 0.930E+00 0.543E+02 0.996E+00 0.289E+01 0.353E+00 0.607E-03 0.341E-02 0.277E+00 0.229E+02 0.396E-01 0.373E-03 .34327E-01 0.166E+03 0.244E+01 0.000E+00 0.000E+00 0.000E+00
BIGSUB   1        0   30.24419E+00 0.660E+01 0.000E+00 0.158E+01 0.157E+01 0.115E+03 0.682E-01 0.724E-02 0.236E+00 0.112E+02 0.197E-09 0.221E-03 0.278E-04 0.179E-05 0.141E-05 0.223E-04 0.110E+02 0.180E-01 0.767E-04 .28335E-06 0.512E-09 0.932E+00 0.000E+00 0.000E+00 0.000E+00
BIGSUB   2        0   30.13482E+00 0.660E+01 0.000E+00 0.158E+01 0.156E+01 0.110E+03 0.498E-01 0.255E-02 0.165E+00 0.109E+02 0.584E-09 0.100E-08 0.100E-08 0.104E-05 0.655E-06 0.200E-08 0.107E+02 0.177E-01 0.574E-04 .22310E-10 0.000E+00 0.905E+00 0.000E+00 0.000E+00 0.000E+00
BIGSUB   3        0   30.12733E+00 0.660E+01 0.000E+00 0.158E+01 0.157E+01 0.115E+03 0.713E-01 0.100E-05 0.247E+00 0.113E+02 0.157E-09 0.100E-08 0.100E-08 0.100E-08 0.100E-08 0.200E-08 0.110E+02 0.176E-01 0.814E-04 .66300E-24 0.000E+00 0.934E+00 0.000E+00 0.000E+00 0.000E+00
BIGSUB   4        0   30.18951E+00 0.660E+01 0.000E+00 0.158E+01 0.150E+01 0.101E+03 0.238E-01 0.821E-02 0.598E-01 0.966E+01 0.264E-09 0.763E-04 0.970E-05 0.839E-05 0.164E-05 0.811E-05 0.959E+01 0.160E-01 0.207E-04 .52066E-07 0.185E-08 0.802E+00 0.000E+00 0.000E+00 0.000E+00
BIGSUB   5        0   30.25558E+00 0.660E+01 0.000E+00 0.158E+01 0.156E+01 0.102E+03 0.580E-01 0.959E-02 0.613E-01 0.103E+02 0.249E-09 0.138E-03 0.169E-04 0.197E-05 0.195E-05 0.134E-04 0.103E+02 0.166E-01 0.195E-04 .19228E-06 0.138E-08 0.858E+00 0.000E+00 0.000E+00 0.000E+00
BIGSUB   6        0   30.15319E+00 0.660E+01 0.000E+00 0.158E+01 0.157E+01 0.122E+03 0.156E+00 0.342E-02 0.468E+00 0.115E+02 0.451E-09 0.533E-04 0.660E-05 0.197E-06 0.837E-06 0.491E-05 0.110E+02 0.173E-01 0.169E-03 .32118E-07 0.000E+00 0.955E+00 0.000E+00 0.000E+00 0.000E+00
BIGSUB   7        0   30.13143E+00 0.660E+01 0.000E+00 0.158E+01 0.155E+01 0.118E+03 0.164E+00 0.695E-02 0.328E+00 0.107E+02 0.837E-09 0.317E-03 0.398E-04 0.451E-05 0.769E-06 0.329E-04 0.103E+02 0.182E-01 0.207E-03 .42136E-06 0.416E-08 0.886E+00 0.000E+00 0.000E+00 0.000E+00
BIGSUB   8        0   30.90085E-01 0.660E+01 0.000E+00 0.158E+01 0.157E+01 0.154E+03 0.311E+00 0.111E+00 0.834E+00 0.124E+02 0.115E-08 0.516E-02 0.633E-03 0.347E-04 0.699E-05 0.511E-03 0.114E+02 0.191E-01 0.327E-03 .49945E-04 0.352E-07 0.103E+01 0.000E+00 0.000E+00 0.000E+00
BIGSUB   9        0   30.37142E-01 0.660E+01 0.000E+00 0.158E+01 0.157E+01 0.130E+03 0.386E+00 0.304E+00 0.939E+00 0.111E+02 0.215E-08 0.463E-06 0.573E-07 0.529E-05 0.537E-04 0.446E-07 0.979E+01 0.153E-01 0.378E-03 .20321E-06 0.000E+00 0.919E+00 0.000E+00 0.000E+00 0.000E+00
BIGSUB   1        0   31.24419E+00 0.381E+02 0.000E+00 0.112E+01 0.111E+01 0.116E+03 0.199E+01 0.972E+01 0.239E+00 0.300E+02 0.146E+01 0.149E+01 0.182E+00 0.162E-03 0.495E-03 0.146E+00 0.201E+02 0.488E-01 0.794E-04 .79346E-02 0.130E+03 0.171E+01 0.000E+00 0.000E+00 0.000E+00
BIGSUB   2        0   31.13482E+00 0.381E+02 0.000E+00 0.112E+01 0.111E+01 0.111E+03 0.166E+01 0.105E+02 0.168E+00 0.304E+02 0.140E+01 0.147E+01 0.179E+00 0.287E-03 0.694E-03 0.144E+00 0.197E+02 0.490E-01 0.594E-04 .79257E-02 0.126E+03 0.169E+01 0.000E+00 0.000E+00 0.000E+00
BIGSUB   3        0   31.12733E+00 0.381E+02 0.000E+00 0.112E+01 0.111E+01 0.115E+03 0.209E+01 0.961E+01 0.251E+00 0.300E+02 0.110E+01 0.146E+01 0.178E+00 0.155E-03 0.513E-03 0.142E+00 0.201E+02 0.476E-01 0.843E-04 .76102E-02 0.104E+03 0.171E+01 0.000E+00 0.000E+00 0.000E+00
BIGSUB   4        0   31.18951E+00 0.381E+02 0.000E+00 0.112E+01 0.107E+01 0.102E+03 0.103E+01 0.137E+02 0.608E-01 0.314E+02 0.114E+01 0.896E+00 0.110E+00 0.119E-02 0.203E-02 0.891E-01 0.177E+02 0.422E-01 0.214E-04 .52525E-02 0.977E+02 0.152E+01 0.000E+00 0.000E+00 0.000E+00
BIGSUB   5        0   31.25558E+00 0.381E+02 0.000E+00 0.112E+01 0.110E+01 0.102E+03 0.173E+01 0.116E+02 0.624E-01 0.304E+02 0.950E+00 0.145E+01 0.177E+00 0.348E-03 0.845E-03 0.142E+00 0.188E+02 0.390E-01 0.202E-04 .84709E-02 0.993E+02 0.160E+01 0.000E+00 0.000E+00 0.000E+00
BIGSUB   6        0   31.15319E+00 0.381E+02 0.000E+00 0.112E+01 0.111E+01 0.123E+03 0.301E+01 0.882E+01 0.475E+00 0.293E+02 0.960E+00 0.131E+01 0.160E+00 0.159E-03 0.535E-03 0.128E+00 0.200E+02 0.443E-01 0.174E-03 .65004E-02 0.895E+02 0.173E+01 0.000E+00 0.000E+00 0.000E+00
BIGSUB   7        0   31.13143E+00 0.381E+02 0.000E+00 0.112E+01 0.110E+01 0.118E+03 0.228E+01 0.110E+02 0.332E+00 0.301E+02 0.119E+01 0.128E+01 0.158E+00 0.547E-03 0.104E-02 0.127E+00 0.188E+02 0.473E-01 0.212E-03 .79006E-02 0.113E+03 0.162E+01 0.000E+00 0.000E+00 0.000E+00
BIGSUB   8        0   31.90085E-01 0.381E+02 0.000E+00 0.112E+01 0.112E+01 0.155E+03 0.465E+01 0.686E+01 0.848E+00 0.280E+02 0.408E+00 0.853E+00 0.104E+00 0.200E-03 0.525E-03 0.823E-01 0.203E+02 0.396E-01 0.338E-03 .46397E-02 0.466E+02 0.179E+01 0.000E+00 0.000E+00 0.000E+00
BIGSUB   9        0   31.37142E-01 0.381E+02 0.000E+00 0.112E+01 0.112E+01 0.131E+03 0.493E+01 0.983E+01 0.952E+00 0.284E+02 0.467E+00 0.943E+00 0.115E+00 0.231E-03 0.110E-02 0.908E-01 0.176E+02 0.348E-01 0.389E-03 .49859E-02 0.470E+02 0.177E+01 0.000E+00 0.000E+00 0.000E+00
BIGSUB   1        0   32.24419E+00 0.250E+01 0.000E+00 0.315E+01 0.299E+01 0.114E+03 0.660E-01 0.175E-02 0.243E+00 0.801E+01 0.197E-09 0.141E-04 0.173E-05 0.189E-07 0.428E-06 0.130E-05 0.776E+01 0.182E-01 0.815E-04 .32803E-07 0.000E+00 0.658E+00 0.000E+00 0.000E+00 0.000E+00
BIGSUB   2        0   32.13482E+00 0.250E+01 0.000E+00 0.315E+01 0.298E+01 0.109E+03 0.571E-01 0.350E-03 0.170E+00 0.782E+01 0.584E-09 0.100E-08 0.100E-08 0.470E-08 0.928E-07 0.200E-08 0.764E+01 0.183E-01 0.610E-04 .38951E-12 0.000E+00 0.642E+00 0.000E+00 0.000E+00 0.000E+00
BIGSUB   3        0   32.12733E+00 0.250E+01 0.000E+00 0.315E+01 0.299E+01 0.113E+03 0.692E-01 0.100E-05 0.254E+00 0.803E+01 0.157E-09 0.100E-08 0.100E-08 0.100E-08 0.100E-08 0.200E-08 0.776E+01 0.177E-01 0.864E-04 .12870E-23 0.000E+00 0.659E+00 0.000E+00 0.000E+00 0.000E+00
BIGSUB   4        0   32.18951E+00 0.250E+01 0.000E+00 0.316E+01 0.292E+01 0.999E+02 0.401E-01 0.183E-05 0.616E-01 0.705E+01 0.264E-09 0.375E-07 0.588E-08 0.110E-08 0.121E-08 0.576E-08 0.698E+01 0.161E-01 0.220E-04 .10064E-15 0.000E+00 0.578E+00 0.000E+00 0.000E+00 0.000E+00
BIGSUB   5        0   32.25558E+00 0.250E+01 0.000E+00 0.315E+01 0.298E+01 0.100E+03 0.646E-01 0.354E-02 0.632E-01 0.740E+01 0.249E-09 0.296E-04 0.362E-05 0.374E-07 0.854E-06 0.274E-05 0.732E+01 0.147E-01 0.207E-04 .63002E-08 0.000E+00 0.607E+00 0.000E+00 0.000E+00 0.000E+00
BIGSUB   6        0   32.15319E+00 0.250E+01 0.000E+00 0.315E+01 0.299E+01 0.121E+03 0.105E+00 0.791E-03 0.480E+00 0.821E+01 0.451E-09 0.181E-04 0.225E-05 0.147E-07 0.188E-06 0.169E-05 0.771E+01 0.165E-01 0.178E-03 .13915E-08 0.000E+00 0.674E+00 0.000E+00 0.000E+00 0.000E+00
BIGSUB   7        0   32.13143E+00 0.250E+01 0.000E+00 0.315E+01 0.297E+01 0.116E+03 0.102E+00 0.157E-04 0.337E+00 0.772E+01 0.837E-09 0.331E-06 0.448E-07 0.564E-08 0.217E-08 0.387E-07 0.737E+01 0.180E-01 0.216E-03 .16128E-15 0.000E+00 0.634E+00 0.000E+00 0.000E+00 0.000E+00
BIGSUB   8        0   32.90085E-01 0.250E+01 0.000E+00 0.315E+01 0.299E+01 0.153E+03 0.192E+00 0.729E-02 0.859E+00 0.868E+01 0.115E-08 0.659E-04 0.806E-05 0.124E-05 0.120E-05 0.637E-05 0.778E+01 0.152E-01 0.347E-03 .26045E-08 0.120E-08 0.712E+00 0.000E+00 0.000E+00 0.000E+00
[...]
BIGSUB   1        0  359.24419E+00 0.000E+00 0.000E+00 0.683E+01 0.227E+01 0.106E+03 0.000E+00 0.172E-03 0.105E+00 0.127E+01 0.197E-09 0.145E-05 0.178E-06 0.344E-08 0.398E-07 0.128E-06 0.116E+01 0.239E-02 0.177E-04 .12865E-09 0.000E+00 0.104E+00 0.000E+00 0.000E+00 0.000E+00
BIGSUB   2        0  359.13482E+00 0.000E+00 0.000E+00 0.683E+01 0.224E+01 0.100E+03 0.000E+00 0.213E-04 0.672E-01 0.120E+01 0.584E-09 0.334E-07 0.497E-08 0.125E-08 0.611E-08 0.465E-08 0.113E+01 0.236E-02 0.125E-04 .32032E-13 0.000E+00 0.982E-01 0.000E+00 0.000E+00 0.000E+00
BIGSUB   3        0  359.12733E+00 0.000E+00 0.000E+00 0.683E+01 0.227E+01 0.105E+03 0.000E+00 0.100E-05 0.116E+00 0.128E+01 0.157E-09 0.100E-08 0.100E-08 0.100E-08 0.100E-08 0.200E-08 0.116E+01 0.234E-02 0.191E-04 .57794E-22 0.000E+00 0.105E+00 0.000E+00 0.000E+00 0.000E+00
BIGSUB   4        0  359.18951E+00 0.000E+00 0.000E+00 0.683E+01 0.217E+01 0.889E+02 0.000E+00 0.100E-05 0.231E-01 0.100E+01 0.264E-09 0.100E-08 0.100E-08 0.100E-08 0.100E-08 0.200E-08 0.976E+00 0.201E-02 0.491E-05 .91103E-22 0.000E+00 0.820E-01 0.000E+00 0.000E+00 0.000E+00
BIGSUB   5        0  359.25558E+00 0.000E+00 0.000E+00 0.683E+01 0.221E+01 0.919E+02 0.000E+00 0.211E-02 0.112E-01 0.108E+01 0.434E-08 0.351E-05 0.430E-06 0.300E-07 0.507E-06 0.308E-06 0.106E+01 0.241E-02 0.465E-05 .43000E-07 0.000E+00 0.883E-01 0.000E+00 0.000E+00 0.000E+00
BIGSUB   6        0  359.15319E+00 0.000E+00 0.000E+00 0.683E+01 0.230E+01 0.113E+03 0.000E+00 0.476E-05 0.251E+00 0.143E+01 0.451E-09 0.600E-07 0.822E-08 0.104E-08 0.185E-08 0.699E-08 0.117E+01 0.228E-02 0.618E-04 .14475E-15 0.000E+00 0.117E+00 0.000E+00 0.000E+00 0.000E+00
BIGSUB   7        0  359.13143E+00 0.000E+00 0.000E+00 0.683E+01 0.226E+01 0.107E+03 0.000E+00 0.100E-05 0.142E+00 0.129E+01 0.837E-09 0.100E-08 0.100E-08 0.100E-08 0.100E-08 0.200E-08 0.114E+01 0.292E-02 0.105E-03 .66300E-22 0.000E+00 0.106E+00 0.000E+00 0.000E+00 0.000E+00
BIGSUB   8        0  359.90085E-01 0.000E+00 0.000E+00 0.684E+01 0.242E+01 0.144E+03 0.000E+00 0.322E-02 0.414E+00 0.171E+01 0.115E-08 0.843E-07 0.112E-07 0.389E-07 0.843E-06 0.883E-08 0.127E+01 0.258E-02 0.931E-04 .18022E-09 0.000E+00 0.140E+00 0.000E+00 0.000E+00 0.000E+00
BIGSUB   9        0  359.37142E-01 0.000E+00 0.000E+00 0.684E+01 0.244E+01 0.119E+03 0.114E-02 0.111E-05 0.531E+00 0.162E+01 0.215E-08 0.100E-08 0.100E-08 0.100E-08 0.100E-08 0.200E-08 0.107E+01 0.204E-02 0.158E-03 .28399E-16 0.000E+00 0.133E+00 0.000E+00 0.000E+00 0.000E+00
BIGSUB   1        0  360.24419E+00 0.239E+02 0.000E+00 0.383E+01 0.339E+01 0.112E+03 0.491E-01 0.234E+01 0.110E+00 0.103E+02 0.190E+00 0.122E+00 0.150E-01 0.311E-03 0.620E-04 0.118E-01 0.784E+01 0.296E-02 0.191E-04 .39027E-03 0.156E+02 0.671E+00 0.000E+00 0.000E+00 0.000E+00
BIGSUB   2        0  360.13482E+00 0.239E+02 0.000E+00 0.383E+01 0.338E+01 0.107E+03 0.267E-01 0.263E+01 0.709E-01 0.105E+02 0.186E+00 0.145E+00 0.178E-01 0.309E-03 0.777E-04 0.139E-01 0.776E+01 0.263E-02 0.135E-04 .54542E-03 0.154E+02 0.661E+00 0.000E+00 0.000E+00 0.000E+00
BIGSUB   3        0  360.12733E+00 0.239E+02 0.000E+00 0.383E+01 0.339E+01 0.112E+03 0.647E-01 0.228E+01 0.121E+00 0.103E+02 0.141E+00 0.136E+00 0.167E-01 0.242E-03 0.616E-04 0.129E-01 0.786E+01 0.301E-02 0.206E-04 .42875E-03 0.119E+02 0.674E+00 0.000E+00 0.000E+00 0.000E+00
BIGSUB   4        0  360.18951E+00 0.239E+02 0.000E+00 0.384E+01 0.335E+01 0.950E+02 0.274E-02 0.394E+01 0.245E-01 0.112E+02 0.242E+00 0.237E+00 0.297E-01 0.613E-03 0.147E-03 0.242E-01 0.720E+01 0.223E-02 0.530E-05 .16156E-02 0.257E+02 0.609E+00 0.000E+00 0.000E+00 0.000E+00
BIGSUB   5        0  360.25558E+00 0.239E+02 0.000E+00 0.383E+01 0.339E+01 0.985E+02 0.232E-01 0.302E+01 0.132E-01 0.105E+02 0.144E+00 0.187E+00 0.230E-01 0.347E-03 0.102E-03 0.179E-01 0.748E+01 0.309E-02 0.499E-05 .76795E-03 0.144E+02 0.632E+00 0.000E+00 0.000E+00 0.000E+00
BIGSUB   6        0  360.15319E+00 0.239E+02 0.000E+00 0.383E+01 0.339E+01 0.120E+03 0.268E+00 0.200E+01 0.259E+00 0.101E+02 0.122E+00 0.119E+00 0.146E-01 0.223E-03 0.605E-04 0.113E-01 0.778E+01 0.353E-02 0.654E-04 .38197E-03 0.103E+02 0.680E+00 0.000E+00 0.000E+00 0.000E+00
BIGSUB   7        0  360.13143E+00 0.239E+02 0.000E+00 0.383E+01 0.336E+01 0.114E+03 0.166E+00 0.297E+01 0.149E+00 0.105E+02 0.187E+00 0.142E+00 0.180E-01 0.119E-02 0.221E-03 0.150E-01 0.737E+01 0.350E-02 0.110E-03 .79109E-03 0.188E+02 0.635E+00 0.000E+00 0.000E+00 0.000E+00
BIGSUB   8        0  360.90085E-01 0.239E+02 0.000E+00 0.383E+01 0.337E+01 0.151E+03 0.390E+00 0.169E+01 0.430E+00 0.965E+01 0.794E-01 0.434E-01 0.544E-02 0.712E-03 0.603E-04 0.446E-02 0.751E+01 0.462E-02 0.992E-04 .17188E-03 0.151E+02 0.675E+00 0.000E+00 0.000E+00 0.000E+00
BIGSUB   9        0  360.37142E-01 0.239E+02 0.000E+00 0.383E+01 0.342E+01 0.127E+03 0.721E+00 0.241E+01 0.547E+00 0.973E+01 0.578E-01 0.877E-01 0.107E-01 0.392E-03 0.229E-03 0.819E-02 0.675E+01 0.452E-02 0.166E-03 .44276E-03 0.547E+01 0.689E+00 0.000E+00 0.000E+00 0.000E+00
BIGSUB   1        0  361.24419E+00 0.460E+01 0.000E+00 0.289E+01 0.279E+01 0.113E+03 0.100E-02 0.414E-03 0.115E+00 0.392E+01 0.197E-09 0.558E-07 0.771E-08 0.363E-07 0.957E-07 0.679E-08 0.380E+01 0.116E-02 0.202E-04 .38400E-10 0.000E+00 0.325E+00 0.000E+00 0.000E+00 0.000E+00
BIGSUB   2        0  361.13482E+00 0.460E+01 0.000E+00 0.289E+01 0.279E+01 0.107E+03 0.287E-02 0.204E-04 0.743E-01 0.387E+01 0.584E-09 0.151E-08 0.106E-08 0.259E-08 0.595E-08 0.204E-08 0.380E+01 0.105E-02 0.144E-04 .17356E-14 0.000E+00 0.321E+00 0.000E+00 0.000E+00 0.000E+00
BIGSUB   3        0  361.12733E+00 0.460E+01 0.000E+00 0.289E+01 0.279E+01 0.112E+03 0.000E+00 0.100E-05 0.126E+00 0.394E+01 0.157E-09 0.100E-08 0.100E-08 0.100E-08 0.100E-08 0.200E-08 0.381E+01 0.117E-02 0.219E-04 .51858E-23 0.000E+00 0.326E+00 0.000E+00 0.000E+00 0.000E+00
BIGSUB   4        0  361.18951E+00 0.460E+01 0.000E+00 0.289E+01 0.276E+01 0.951E+02 0.471E-03 0.140E-03 0.258E-01 0.365E+01 0.264E-09 0.101E-07 0.284E-08 0.178E-06 0.124E-08 0.329E-08 0.363E+01 0.938E-03 0.563E-05 .17449E-10 0.548E-09 0.303E+00 0.000E+00 0.000E+00 0.000E+00
BIGSUB   5        0  361.25558E+00 0.460E+01 0.000E+00 0.289E+01 0.280E+01 0.987E+02 0.278E-02 0.153E-02 0.150E-01 0.368E+01 0.407E-09 0.678E-05 0.831E-06 0.320E-06 0.306E-06 0.599E-06 0.366E+01 0.120E-02 0.529E-05 .76569E-08 0.419E-09 0.305E+00 0.000E+00 0.000E+00 0.000E+00
BIGSUB   6        0  361.15319E+00 0.460E+01 0.000E+00 0.289E+01 0.280E+01 0.120E+03 0.521E-02 0.124E-03 0.267E+00 0.401E+01 0.451E-09 0.677E-06 0.990E-07 0.559E-07 0.300E-07 0.849E-07 0.373E+01 0.135E-02 0.684E-04 .30008E-11 0.000E+00 0.332E+00 0.000E+00 0.000E+00 0.000E+00
BIGSUB   7        0  361.13143E+00 0.460E+01 0.000E+00 0.289E+01 0.277E+01 0.114E+03 0.350E-01 0.589E-03 0.155E+00 0.380E+01 0.837E-09 0.557E-07 0.103E-07 0.744E-06 0.198E-08 0.115E-07 0.364E+01 0.165E-02 0.114E-03 .18764E-09 0.158E-08 0.315E+00 0.000E+00 0.000E+00 0.000E+00
BIGSUB   8        0  361.90085E-01 0.460E+01 0.000E+00 0.289E+01 0.280E+01 0.152E+03 0.194E-01 0.371E-01 0.444E+00 0.402E+01 0.115E-08 0.437E-04 0.535E-05 0.532E-04 0.401E-06 0.450E-05 0.352E+01 0.184E-02 0.104E-03 .12299E-05 0.286E-07 0.333E+00 0.000E+00 0.000E+00 0.000E+00
BIGSUB   9        0  361.37142E-01 0.460E+01 0.000E+00 0.289E+01 0.281E+01 0.127E+03 0.204E-01 0.110E+00 0.561E+00 0.390E+01 0.215E-08 0.458E-07 0.649E-08 0.375E-05 0.180E-04 0.595E-08 0.321E+01 0.183E-02 0.173E-03 .14974E-06 0.000E+00 0.323E+00 0.000E+00 0.000E+00 0.000E+00
BIGSUB   1        0  362.24419E+00 0.147E+02 0.000E+00 0.389E+01 0.343E+01 0.113E+03 0.370E+00 0.473E+00 0.119E+00 0.850E+01 0.302E-01 0.192E-01 0.238E-02 0.570E-04 0.128E-04 0.189E-02 0.790E+01 0.905E-02 0.214E-04 .49939E-05 0.775E+00 0.655E+00 0.000E+00 0.000E+00 0.000E+00
BIGSUB   2        0  362.13482E+00 0.147E+02 0.000E+00 0.389E+01 0.343E+01 0.108E+03 0.261E+00 0.553E+00 0.776E-01 0.850E+01 0.292E-01 0.246E-01 0.303E-02 0.530E-04 0.170E-04 0.238E-02 0.786E+01 0.875E-02 0.154E-04 .10245E-04 0.710E+00 0.649E+00 0.000E+00 0.000E+00 0.000E+00
BIGSUB   3        0  362.12733E+00 0.147E+02 0.000E+00 0.389E+01 0.343E+01 0.113E+03 0.389E+00 0.448E+00 0.130E+00 0.849E+01 0.217E-01 0.216E-01 0.265E-02 0.381E-04 0.111E-04 0.205E-02 0.791E+01 0.887E-02 0.232E-04 .46598E-05 0.507E+00 0.657E+00 0.000E+00 0.000E+00 0.000E+00
BIGSUB   4        0  362.18951E+00 0.147E+02 0.000E+00 0.389E+01 0.340E+01 0.957E+02 0.947E-01 0.104E+01 0.270E-01 0.856E+01 0.467E-01 0.546E-01 0.685E-02 0.136E-03 0.405E-04 0.559E-02 0.749E+01 0.824E-02 0.599E-05 .62764E-04 0.212E+01 0.613E+00 0.000E+00 0.000E+00 0.000E+00
BIGSUB   5        0  362.25558E+00 0.147E+02 0.000E+00 0.389E+01 0.343E+01 0.994E+02 0.126E+00 0.665E+00 0.168E-01 0.836E+01 0.250E-01 0.334E-01 0.413E-02 0.631E-04 0.229E-04 0.323E-02 0.767E+01 0.840E-02 0.560E-05 .15775E-04 0.928E+00 0.628E+00 0.000E+00 0.000E+00 0.000E+00
BIGSUB   6        0  362.15319E+00 0.147E+02 0.000E+00 0.389E+01 0.343E+01 0.120E+03 0.741E+00 0.392E+00 0.275E+00 0.846E+01 0.188E-01 0.187E-01 0.230E-02 0.355E-04 0.109E-04 0.178E-02 0.778E+01 0.899E-02 0.714E-04 .49214E-05 0.447E+00 0.659E+00 0.000E+00 0.000E+00 0.000E+00
BIGSUB   7        0  362.13143E+00 0.147E+02 0.000E+00 0.389E+01 0.341E+01 0.115E+03 0.586E+00 0.732E+00 0.161E+00 0.839E+01 0.342E-01 0.272E-01 0.349E-02 0.226E-03 0.626E-04 0.296E-02 0.749E+01 0.999E-02 0.118E-03 .29280E-04 0.155E+01 0.625E+00 0.000E+00 0.000E+00 0.000E+00
BIGSUB   8        0  362.90085E-01 0.147E+02 0.000E+00 0.388E+01 0.342E+01 0.152E+03 0.128E+01 0.585E+00 0.458E+00 0.846E+01 0.241E-01 0.527E-02 0.682E-03 0.195E-03 0.119E-04 0.615E-03 0.740E+01 0.103E-01 0.109E-03 .23246E-04 0.477E+01 0.643E+00 0.000E+00 0.000E+00 0.000E+00
BIGSUB   9        0  362.37142E-01 0.147E+02 0.000E+00 0.388E+01 0.346E+01 0.127E+03 0.159E+01 0.108E+01 0.575E+00 0.841E+01 0.917E-02 0.148E-01 0.182E-02 0.659E-04 0.141E-03 0.138E-02 0.673E+01 0.914E-02 0.180E-03 .16250E-04 0.286E+00 0.658E+00 0.000E+00 0.000E+00 0.000E+00
BIGSUB   1        0  363.24419E+00 0.840E+01 0.000E+00 0.423E+01 0.364E+01 0.113E+03 0.111E+00 0.492E-02 0.123E+00 0.599E+01 0.197E-09 0.206E-04 0.388E-05 0.402E-05 0.542E-06 0.619E-05 0.586E+01 0.601E-02 0.225E-04 .48105E-08 0.172E-08 0.489E+00 0.000E+00 0.000E+00 0.000E+00
BIGSUB   2        0  363.13482E+00 0.840E+01 0.000E+00 0.423E+01 0.364E+01 0.107E+03 0.786E-01 0.635E-02 0.807E-01 0.595E+01 0.584E-09 0.108E-03 0.136E-04 0.152E-05 0.545E-06 0.113E-04 0.586E+01 0.581E-02 0.162E-04 .13808E-08 0.100E-08 0.486E+00 0.000E+00 0.000E+00 0.000E+00
BIGSUB   3        0  363.12733E+00 0.840E+01 0.000E+00 0.423E+01 0.364E+01 0.113E+03 0.116E+00 0.100E-05 0.134E+00 0.600E+01 0.157E-09 0.100E-08 0.100E-08 0.100E-08 0.100E-08 0.200E-08 0.586E+01 0.584E-02 0.244E-04 .22283E-23 0.000E+00 0.490E+00 0.000E+00 0.000E+00 0.000E+00
BIGSUB   4        0  363.18951E+00 0.840E+01 0.000E+00 0.424E+01 0.361E+01 0.956E+02 0.273E-01 0.495E-01 0.282E-01 0.581E+01 0.264E-09 0.140E-02 0.177E-03 0.110E-04 0.227E-05 0.146E-03 0.573E+01 0.589E-02 0.631E-05 .19398E-07 0.370E-08 0.475E+00 0.000E+00 0.000E+00 0.000E+00
BIGSUB   5        0  363.25558E+00 0.840E+01 0.000E+00 0.423E+01 0.364E+01 0.992E+02 0.116E+00 0.109E-01 0.184E-01 0.584E+01 0.249E-09 0.209E-03 0.263E-04 0.286E-05 0.595E-06 0.218E-04 0.581E+01 0.654E-02 0.588E-05 .61542E-08 0.282E-08 0.477E+00 0.000E+00 0.000E+00 0.000E+00
BIGSUB   6        0  363.15319E+00 0.840E+01 0.000E+00 0.423E+01 0.364E+01 0.120E+03 0.239E+00 0.110E-02 0.281E+00 0.603E+01 0.451E-09 0.174E-06 0.261E-07 0.406E-06 0.133E-06 0.233E-07 0.574E+01 0.594E-02 0.741E-04 .50572E-10 0.000E+00 0.493E+00 0.000E+00 0.000E+00 0.000E+00
BIGSUB   7        0  363.13143E+00 0.840E+01 0.000E+00 0.423E+01 0.362E+01 0.115E+03 0.239E+00 0.368E-01 0.167E+00 0.584E+01 0.837E-09 0.454E-03 0.624E-04 0.258E-04 0.508E-05 0.595E-04 0.563E+01 0.707E-02 0.123E-03 .25914E-07 0.106E-07 0.477E+00 0.000E+00 0.000E+00 0.000E+00
BIGSUB   8        0  363.90085E-01 0.840E+01 0.000E+00 0.422E+01 0.363E+01 0.152E+03 0.442E+00 0.168E+00 0.471E+00 0.604E+01 0.115E-08 0.165E-03 0.231E-04 0.821E-04 0.144E-05 0.259E-04 0.538E+01 0.713E-02 0.114E-03 .42217E-05 0.666E-07 0.493E+00 0.000E+00 0.000E+00 0.000E+00
BIGSUB   9        0  363.37142E-01 0.840E+01 0.000E+00 0.422E+01 0.367E+01 0.127E+03 0.561E+00 0.342E+00 0.588E+00 0.590E+01 0.215E-08 0.135E-03 0.164E-04 0.646E-05 0.554E-04 0.122E-04 0.495E+01 0.618E-02 0.187E-03 .18359E-06 0.356E-08 0.482E+00 0.000E+00 0.000E+00 0.000E+00
BIGSUB   1        0  364.24419E+00 0.300E+00 0.000E+00 0.571E+01 0.321E+01 0.110E+03 0.702E-05 0.216E-04 0.127E+00 0.214E+01 0.197E-09 0.140E-08 0.105E-08 0.203E-08 0.574E-08 0.203E-08 0.201E+01 0.206E-02 0.233E-04 .17075E-14 0.000E+00 0.175E+00 0.000E+00 0.000E+00 0.000E+00
BIGSUB   2        0  364.13482E+00 0.300E+00 0.000E+00 0.571E+01 0.319E+01 0.104E+03 0.000E+00 0.104E-05 0.835E-01 0.210E+01 0.584E-09 0.100E-08 0.100E-08 0.100E-08 0.101E-08 0.200E-08 0.201E+01 0.200E-02 0.169E-04 .30977E-22 0.000E+00 0.172E+00 0.000E+00 0.000E+00 0.000E+00
BIGSUB   3        0  364.12733E+00 0.300E+00 0.000E+00 0.572E+01 0.321E+01 0.110E+03 0.000E+00 0.100E-05 0.138E+00 0.216E+01 0.157E-09 0.100E-08 0.100E-08 0.100E-08 0.100E-08 0.200E-08 0.201E+01 0.201E-02 0.253E-04 .17625E-22 0.000E+00 0.176E+00 0.000E+00 0.000E+00 0.000E+00
BIGSUB   4        0  364.18951E+00 0.300E+00 0.000E+00 0.573E+01 0.314E+01 0.928E+02 0.000E+00 0.101E-05 0.292E-01 0.200E+01 0.264E-09 0.100E-08 0.100E-08 0.101E-08 0.100E-08 0.200E-08 0.197E+01 0.203E-02 0.656E-05 .38657E-22 0.000E+00 0.163E+00 0.000E+00 0.000E+00 0.000E+00
BIGSUB   5        0  364.25558E+00 0.300E+00 0.000E+00 0.572E+01 0.318E+01 0.963E+02 0.398E-05 0.276E-03 0.199E-01 0.202E+01 0.249E-09 0.271E-06 0.340E-07 0.109E-07 0.668E-07 0.255E-07 0.200E+01 0.225E-02 0.612E-05 .19420E-09 0.000E+00 0.165E+00 0.000E+00 0.000E+00 0.000E+00
BIGSUB   6        0  364.15319E+00 0.300E+00 0.000E+00 0.571E+01 0.323E+01 0.117E+03 0.000E+00 0.239E-05 0.287E+00 0.227E+01 0.451E-09 0.194E-08 0.114E-08 0.205E-08 0.139E-08 0.211E-08 0.197E+01 0.204E-02 0.760E-04 .85246E-17 0.000E+00 0.186E+00 0.000E+00 0.000E+00 0.000E+00
BIGSUB   7        0  364.13143E+00 0.300E+00 0.000E+00 0.571E+01 0.319E+01 0.112E+03 0.000E+00 0.100E-05 0.172E+00 0.215E+01 0.837E-09 0.160E-08 0.104E-08 0.102E-08 0.100E-08 0.203E-08 0.197E+01 0.263E-02 0.126E-03 .20834E-22 0.000E+00 0.176E+00 0.000E+00 0.000E+00 0.000E+00
BIGSUB   8        0  364.90085E-01 0.300E+00 0.000E+00 0.570E+01 0.331E+01 0.149E+03 0.000E+00 0.271E-03 0.482E+00 0.237E+01 0.115E-08 0.152E-08 0.102E-08 0.542E-08 0.714E-07 0.200E-08 0.187E+01 0.255E-02 0.117E-03 .24942E-12 0.000E+00 0.194E+00 0.000E+00 0.000E+00 0.000E+00
BIGSUB   9        0  364.37142E-01 0.300E+00 0.000E+00 0.570E+01 0.341E+01 0.124E+03 0.205E-02 0.110E-02 0.599E+00 0.234E+01 0.215E-08 0.100E-08 0.100E-08 0.155E-07 0.182E-06 0.200E-08 0.171E+01 0.215E-02 0.192E-03 .50626E-09 0.000E+00 0.191E+00 0.000E+00 0.000E+00 0.000E+00
BIGSUB   1        0  365.24419E+00 0.740E+01 0.000E+00 0.349E+01 0.296E+01 0.111E+03 0.719E-03 0.204E-02 0.130E+00 0.273E+01 0.748E-04 0.100E-04 0.190E-05 0.231E-05 0.206E-06 0.312E-05 0.260E+01 0.846E-03 0.240E-04 .21397E-08 0.176E-02 0.227E+00 0.000E+00 0.000E+00 0.000E+00
BIGSUB   2        0  365.13482E+00 0.740E+01 0.000E+00 0.349E+01 0.294E+01 0.106E+03 0.165E-02 0.912E-03 0.859E-01 0.273E+01 0.584E-09 0.100E-08 0.100E-08 0.347E-06 0.104E-06 0.200E-08 0.264E+01 0.832E-03 0.174E-04 .50924E-11 0.000E+00 0.227E+00 0.000E+00 0.000E+00 0.000E+00
BIGSUB   3        0  365.12733E+00 0.740E+01 0.000E+00 0.349E+01 0.296E+01 0.111E+03 0.000E+00 0.100E-05 0.141E+00 0.274E+01 0.157E-09 0.100E-08 0.100E-08 0.100E-08 0.100E-08 0.200E-08 0.259E+01 0.822E-03 0.260E-04 .10671E-22 0.000E+00 0.227E+00 0.000E+00 0.000E+00 0.000E+00
BIGSUB   4        0  365.18951E+00 0.740E+01 0.000E+00 0.349E+01 0.290E+01 0.942E+02 0.176E-03 0.608E-02 0.301E-01 0.272E+01 0.278E-03 0.164E-03 0.207E-04 0.228E-05 0.251E-06 0.171E-04 0.268E+01 0.863E-03 0.676E-05 .19086E-08 0.129E-01 0.226E+00 0.000E+00 0.000E+00 0.000E+00
BIGSUB   5        0  365.25558E+00 0.740E+01 0.000E+00 0.349E+01 0.298E+01 0.979E+02 0.197E-02 0.246E-02 0.212E-01 0.258E+01 0.272E-03 0.247E-04 0.312E-05 0.112E-05 0.918E-07 0.258E-05 0.256E+01 0.901E-03 0.630E-05 .27384E-08 0.173E-01 0.215E+00 0.000E+00 0.000E+00 0.000E+00
BIGSUB   6        0  365.15319E+00 0.740E+01 0.000E+00 0.349E+01 0.300E+01 0.119E+03 0.290E-02 0.175E-03 0.293E+00 0.277E+01 0.451E-09 0.100E-08 0.100E-08 0.161E-06 0.306E-07 0.200E-08 0.247E+01 0.823E-03 0.774E-04 .18408E-11 0.000E+00 0.230E+00 0.000E+00 0.000E+00 0.000E+00
BIGSUB   7        0  365.13143E+00 0.740E+01 0.000E+00 0.349E+01 0.295E+01 0.113E+03 0.000E+00 0.106E-01 0.176E+00 0.274E+01 0.383E-03 0.937E-04 0.136E-04 0.134E-04 0.144E-05 0.137E-04 0.254E+01 0.124E-02 0.128E-03 .10193E-07 0.274E-01 0.227E+00 0.000E+00 0.000E+00 0.000E+00
BIGSUB   8        0  365.90085E-01 0.740E+01 0.000E+00 0.349E+01 0.305E+01 0.150E+03 0.126E-01 0.123E+00 0.492E+00 0.279E+01 0.380E-02 0.135E-03 0.180E-04 0.802E-04 0.660E-06 0.184E-04 0.216E+01 0.109E-02 0.120E-03 .46983E-05 0.886E+00 0.222E+00 0.000E+00 0.000E+00 0.000E+00
BIGSUB   9        0  365.37142E-01 0.740E+01 0.000E+00 0.349E+01 0.311E+01 0.126E+03 0.354E-02 0.193E+00 0.609E+00 0.281E+01 0.215E-08 0.100E-08 0.100E-08 0.679E-05 0.318E-04 0.200E-08 0.199E+01 0.924E-03 0.195E-03 .22476E-06 0.000E+00 0.234E+00 0.000E+00 0.000E+00 0.000E+00
BIGSUB   1        0  366.24419E+00 0.399E+02 0.000E+00 0.181E+01 0.179E+01 0.115E+03 0.130E+01 0.101E+02 0.134E+00 0.263E+02 0.523E+00 0.427E+00 0.525E-01 0.259E-03 0.298E-03 0.409E-01 0.161E+02 0.262E-01 0.252E-04 .28662E-02 0.710E+02 0.136E+01 0.000E+00 0.000E+00 0.000E+00
BIGSUB   2        0  366.13482E+00 0.399E+02 0.000E+00 0.181E+01 0.179E+01 0.110E+03 0.988E+00 0.109E+02 0.890E-01 0.267E+02 0.510E+00 0.463E+00 0.569E-01 0.271E-03 0.338E-03 0.443E-01 0.157E+02 0.254E-01 0.183E-04 .34901E-02 0.708E+02 0.133E+01 0.000E+00 0.000E+00 0.000E+00
BIGSUB   3        0  366.12733E+00 0.399E+02 0.000E+00 0.181E+01 0.179E+01 0.115E+03 0.136E+01 0.100E+02 0.145E+00 0.263E+02 0.395E+00 0.468E+00 0.573E-01 0.236E-03 0.321E-03 0.441E-01 0.161E+02 0.257E-01 0.273E-04 .32153E-02 0.566E+02 0.137E+01 0.000E+00 0.000E+00 0.000E+00
BIGSUB   4        0  366.18951E+00 0.399E+02 0.000E+00 0.181E+01 0.178E+01 0.982E+02 0.403E+00 0.137E+02 0.313E-01 0.278E+02 0.600E+00 0.610E+00 0.762E-01 0.409E-03 0.484E-03 0.617E-01 0.141E+02 0.223E-01 0.713E-05 .68496E-02 0.943E+02 0.119E+01 0.000E+00 0.000E+00 0.000E+00
BIGSUB   5        0  366.25558E+00 0.399E+02 0.000E+00 0.181E+01 0.179E+01 0.101E+03 0.107E+01 0.120E+02 0.228E-01 0.272E+02 0.385E+00 0.556E+00 0.684E-01 0.280E-03 0.400E-03 0.531E-01 0.152E+02 0.277E-01 0.662E-05 .46602E-02 0.613E+02 0.128E+01 0.000E+00 0.000E+00 0.000E+00
BIGSUB   6        0  366.15319E+00 0.399E+02 0.000E+00 0.182E+01 0.179E+01 0.122E+03 0.225E+01 0.924E+01 0.300E+00 0.256E+02 0.345E+00 0.432E+00 0.529E-01 0.215E-03 0.358E-03 0.407E-01 0.161E+02 0.255E-01 0.805E-04 .28211E-02 0.490E+02 0.138E+01 0.000E+00 0.000E+00 0.000E+00
BIGSUB   7        0  366.13143E+00 0.399E+02 0.000E+00 0.182E+01 0.178E+01 0.117E+03 0.159E+01 0.114E+02 0.182E+00 0.265E+02 0.479E+00 0.444E+00 0.556E-01 0.631E-03 0.714E-03 0.450E-01 0.150E+02 0.269E-01 0.133E-03 .37736E-02 0.710E+02 0.128E+01 0.000E+00 0.000E+00 0.000E+00
BIGSUB   8        0  366.90085E-01 0.399E+02 0.000E+00 0.182E+01 0.179E+01 0.154E+03 0.373E+01 0.730E+01 0.505E+00 0.243E+02 0.173E+00 0.305E+00 0.375E-01 0.377E-03 0.440E-03 0.290E-01 0.165E+02 0.279E-01 0.125E-03 .10281E-02 0.296E+02 0.144E+01 0.000E+00 0.000E+00 0.000E+00
BIGSUB   9        0  366.37142E-01 0.399E+02 0.000E+00 0.182E+01 0.180E+01 0.129E+03 0.414E+01 0.101E+02 0.622E+00 0.250E+02 0.168E+00 0.328E+00 0.402E-01 0.348E-03 0.987E-03 0.304E-01 0.142E+02 0.237E-01 0.202E-03 .22795E-02 0.249E+02 0.146E+01 0.000E+00 0.000E+00 0.000E+00
