1
    SWAT Dec 23 2016    VER 2016/Rev 664                                                                 0/ 0/   0      0: 0: 0

    General Input/Output section (file.cio):                                        
    2/12/2020 14:35:46 QSWAT Workflow v1.5.2                                        
                                                                                    
         Number of years in run:    5
         Area of watershed:        1.363 km2
1
    SWAT Dec 23 2016    VER 2016/Rev 664                                            

    General Input/Output section (file.cio):                                        
    2/12/2020 14:35:46 QSWAT Workflow v1.5.2                                        
                                                                                    
Annual Summary for Watershed in year    1 of simulation

UNIT                                    PERCO    TILE                           WATER     SED     NO3     NO3     NO3     NO3        N       P       P
TIME     PREC    SURQ    LATQ     GWQ    LATE       Q     SW       ET     PET   YIELD   YIELD    SURQ    LATQ    PERC    CROP  ORGANIC SOLUBLE ORGANIC TILENO3
         (mm)    (mm)    (mm)    (mm)    (mm)    (mm)    (mm)    (mm)    (mm)    (mm)   (t/ha)  ------------------(kg nutrient/ha)-------------------- (kg/ha)
1
    SWAT Dec 23 2016    VER 2016/Rev 664                                            

    General Input/Output section (file.cio):                                        
    2/12/2020 14:35:46 QSWAT Workflow v1.5.2                                        
                                                                                    
Annual Summary for Watershed in year    2 of simulation

UNIT                                    PERCO    TILE                           WATER     SED     NO3     NO3     NO3     NO3        N       P       P
TIME     PREC    SURQ    LATQ     GWQ    LATE       Q     SW       ET     PET   YIELD   YIELD    SURQ    LATQ    PERC    CROP  ORGANIC SOLUBLE ORGANIC TILENO3
         (mm)    (mm)    (mm)    (mm)    (mm)    (mm)    (mm)    (mm)    (mm)    (mm)   (t/ha)  ------------------(kg nutrient/ha)-------------------- (kg/ha)
1
    SWAT Dec 23 2016    VER 2016/Rev 664                                            

    General Input/Output section (file.cio):                                        
    2/12/2020 14:35:46 QSWAT Workflow v1.5.2                                        
                                                                                    
Annual Summary for Watershed in year    3 of simulation

UNIT                                    PERCO    TILE                           WATER     SED     NO3     NO3     NO3     NO3        N       P       P
TIME     PREC    SURQ    LATQ     GWQ    LATE       Q     SW       ET     PET   YIELD   YIELD    SURQ    LATQ    PERC    CROP  ORGANIC SOLUBLE ORGANIC TILENO3
         (mm)    (mm)    (mm)    (mm)    (mm)    (mm)    (mm)    (mm)    (mm)    (mm)   (t/ha)  ------------------(kg nutrient/ha)-------------------- (kg/ha)
1
    SWAT Dec 23 2016    VER 2016/Rev 664                                            

    General Input/Output section (file.cio):                                        
    2/12/2020 14:35:46 QSWAT Workflow v1.5.2                                        
                                                                                    
Annual Summary for Watershed in year    4 of simulation

UNIT                                    PERCO    TILE                           WATER     SED     NO3     NO3     NO3     NO3        N       P       P
TIME     PREC    SURQ    LATQ     GWQ    LATE       Q     SW       ET     PET   YIELD   YIELD    SURQ    LATQ    PERC    CROP  ORGANIC SOLUBLE ORGANIC TILENO3
         (mm)    (mm)    (mm)    (mm)    (mm)    (mm)    (mm)    (mm)    (mm)    (mm)   (t/ha)  ------------------(kg nutrient/ha)-------------------- (kg/ha)
    1   26.90    3.78   10.46    0.19    0.11    0.00  109.93    2.28    2.33   14.43    0.29    0.00    0.01    0.00    0.00     0.56    0.00    0.07    0.00
    2    1.00    0.00    3.60    0.19    0.00    0.00  107.86    3.07    3.90    3.80    0.00    0.00    0.00    0.00    0.00     0.00    0.00    0.00    0.00
    3   15.50    0.69    7.38    0.19    0.24    0.00  109.17    3.90    4.71    8.27    0.05    0.00    0.01    0.01    0.00     0.08    0.00    0.01    0.00
    4    6.40    0.01    4.33    0.19    0.02    0.00  108.29    4.51    5.73    4.54    0.00    0.00    0.00    0.00    0.00     0.00    0.00    0.00    0.00
    5   25.70    3.64   11.73    0.19    0.73    0.00  109.47    4.53    5.74   15.57    0.52    0.00    0.02    0.03    0.00     0.84    0.00    0.10    0.00
    6    1.30    0.00    4.12    0.18    0.00    0.00  107.03    3.62    5.77    4.31    0.00    0.00    0.01    0.00    0.00     0.00    0.00    0.00    0.00
    7    0.00    0.00    1.42    0.18    0.00    0.00  104.72    2.30    5.75    1.61    0.00    0.00    0.00    0.00    0.00     0.00    0.00    0.00    0.00
    8    0.00    0.00    0.49    0.18    0.00    0.00  102.81    1.91    5.97    0.68    0.00    0.00    0.00    0.00    0.00     0.00    0.00    0.00    0.00
    9   70.90   30.24   18.18    0.18    1.36    0.00  111.00    3.65    4.27   48.61    3.28    0.00    0.03    0.05    0.00     6.03    0.00    0.74    0.00
   10   49.80   17.28   23.26    0.19    1.95    0.00  112.08    3.57    4.13   40.74    0.00    0.00    0.05    0.09    0.00     4.33    0.00    0.53    0.00
   11   53.10   19.76   25.88    0.19    2.31    0.00  113.72    2.14    2.17   45.84    2.87    0.00    0.06    0.12    0.00     4.06    0.00    0.50    0.00
   12   38.90   10.90   24.45    0.19    2.15    0.00  114.02    1.84    1.88   35.56    0.00    0.00    0.06    0.11    0.00     1.66    0.00    0.20    0.00
   13   15.00    0.80   15.89    0.20    0.95    0.00  114.00    1.87    1.90   16.90    0.03    0.00    0.04    0.05    0.00     0.04    0.00    0.01    0.00
   14   23.40    3.25   16.49    0.21    1.47    0.00  113.81    2.07    2.10   19.96    0.18    0.00    0.04    0.07    0.00     0.29    0.00    0.04    0.00
   15   17.50    1.36   14.18    0.21    1.09    0.00  113.48    2.40    2.44   15.77    0.00    0.00    0.03    0.05    0.00     0.18    0.00    0.02    0.00
   16    8.40    0.05    8.53    0.22    0.38    0.00  113.17    2.71    2.75    8.81    0.00    0.00    0.02    0.02    0.00     0.00    0.00    0.00    0.00
   17   32.30    7.19   16.48    0.23    1.75    0.00  113.05    2.84    2.94   23.90    0.45    0.00    0.04    0.08    0.00     0.66    0.00    0.08    0.00
   18    2.50    0.00    6.11    0.23    0.00    0.00  112.41    2.47    2.54    6.35    0.00    0.00    0.01    0.00    0.00     0.00    0.00    0.00    0.00
   19   10.70    0.16    6.53    0.24    0.32    0.00  113.70    2.19    2.22    6.93    0.01    0.00    0.01    0.01    0.00     0.01    0.00    0.00    0.00
   20    8.60    0.05    6.13    0.24    0.44    0.00  112.05    3.84    4.57    6.44    0.00    0.00    0.01    0.02    0.00     0.00    0.00    0.00    0.00
   21    1.80    0.00    2.34    0.25    0.00    0.00  110.25    3.24    4.44    2.60    0.00    0.00    0.00    0.00    0.00     0.00    0.00    0.00    0.00
   22    8.10    0.04    3.00    0.25    0.01    0.00  111.26    3.70    4.36    3.30    0.00    0.00    0.00    0.00    0.00     0.00    0.00    0.00    0.00
   23    0.00    0.00    1.03    0.25    0.00    0.00  109.07    2.20    4.18    1.30    0.00    0.00    0.00    0.00    0.00     0.00    0.00    0.00    0.00
   24    0.00    0.00    0.36    0.26    0.00    0.00  107.11    1.96    4.75    0.62    0.00    0.00    0.00    0.00    0.00     0.00    0.00    0.00    0.00
   25    6.60    0.02    1.71    0.26    0.00    0.00  107.70    3.57    5.38    2.00    0.00    0.00    0.00    0.00    0.00     0.00    0.00    0.00    0.00
   26    0.00    0.00    0.59    0.26    0.00    0.00  105.59    2.11    4.99    0.86    0.00    0.00    0.00    0.00    0.00     0.00    0.00    0.00    0.00
   27    8.40    0.04    2.34    0.26    0.00    0.00  107.17    3.53    5.00    2.65    0.00    0.00    0.00    0.00    0.00     0.00    0.00    0.00    0.00
   28   28.20    4.61   10.89    0.26    0.42    0.00  111.18    3.79    4.48   15.77    0.39    0.00    0.01    0.01    0.00     0.50    0.00    0.06    0.00
   29   70.90   32.64   24.14    0.26    2.50    0.00  112.81    3.03    3.24   57.04    2.22    0.00    0.05    0.11    0.00     3.77    0.00    0.46    0.00
   30    6.60    0.02   10.56    0.27    0.10    0.00  114.29    1.55    1.58   10.86    0.00    0.00    0.02    0.00    0.00     0.00    0.00    0.00    0.00
   31   38.10   10.52   19.26    0.27    2.18    0.00  114.75    1.10    1.12   30.07    1.10    0.00    0.04    0.10    0.00     1.30    0.00    0.16    0.00
    1  576.60  147.05  301.85    6.86   20.49    0.00  114.75   87.48  117.35  456.09   11.39    0.01    0.60    0.94    0.00    24.30    0.01    2.97    0.00
   32    2.50    0.00    7.49    0.27    0.08    0.00  112.88    2.98    3.15    7.78    0.00    0.00    0.02    0.00    0.00     0.00    0.00    0.00    0.00
   33    5.80    0.01    4.41    0.28    0.06    0.00  114.98    0.83    0.84    4.71    0.00    0.00    0.01    0.00    0.00     0.00    0.00    0.00    0.00
   34    8.90    0.06    6.34    0.28    0.60    0.00  112.43    3.43    3.89    6.70    0.00    0.00    0.01    0.03    0.00     0.00    0.00    0.00    0.00
   35   24.10    3.41   12.70    0.28    1.22    0.00  112.60    3.26    3.61   16.40    0.46    0.00    0.03    0.06    0.00     0.46    0.00    0.06    0.00
   36   21.30    2.42   13.90    0.29    1.09    0.00  113.44    2.41    2.45   16.62    0.00    0.00    0.03    0.05    0.00     0.22    0.00    0.03    0.00
   37    3.30    0.00    5.47    0.29    0.01    0.00  113.92    1.76    1.79    5.78    0.00    0.00    0.01    0.00    0.00     0.00    0.00    0.00    0.00
   38    7.90    0.04    5.50    0.29    0.41    0.00  112.04    3.81    4.19    5.85    0.00    0.00    0.01    0.02    0.01     0.00    0.00    0.00    0.00
   39   70.60   32.66   22.45    0.30    2.78    0.00  113.39    2.47    2.47   55.42    2.22    0.24    0.07    0.12    0.22     2.95    0.00    0.36    0.00
   40    0.30    0.00    7.73    0.30    0.00    0.00  111.21    2.48    3.56    8.04    0.00    0.00    0.02    0.00    0.34     0.00    0.00    0.00    0.00
   41    0.00    0.00    2.66    0.30    0.00    0.00  109.74    1.46    2.40    2.98    0.00    0.00    0.01    0.00    0.21     0.00    0.00    0.00    0.00
   42    0.00    0.00    0.92    0.31    0.00    0.00  108.12    1.62    2.92    1.24    0.00    0.00    0.00    0.00    0.29     0.00    0.00    0.00    0.00
   43    0.00    0.00    0.32    0.31    0.00    0.00  105.84    2.29    5.21    0.64    0.00    0.00    0.00    0.00    0.28     0.00    0.00    0.00    0.00
   44    0.00    0.00    0.11    0.31    0.00    0.00  103.66    2.18    4.78    0.43    0.00    0.00    0.00    0.00    0.51     0.00    0.00    0.00    0.00
   45    0.00    0.00    0.04    0.31    0.00    0.00  101.62    2.04    4.36    0.36    0.00    0.00    0.00    0.00    0.50     0.00    0.00    0.00    0.00
   46    0.00    0.00    0.01    0.31    0.00    0.00   99.74    1.88    3.94    0.34    0.00    0.00    0.00    0.00    0.41     0.00    0.00    0.00    0.00
   47    0.00    0.00    0.01    0.31    0.00    0.00   97.26    2.48    4.89    0.33    0.00    0.00    0.00    0.00    0.49     0.00    0.00    0.00    0.00
   48    0.00    0.00    0.00    0.31    0.00    0.00   95.61    1.64    2.55    0.33    0.00    0.00    0.00    0.00    0.33     0.00    0.00    0.00    0.00
   49    0.00    0.00    0.00    0.31    0.00    0.00   93.37    2.25    3.55    0.32    0.00    0.00    0.00    0.00    0.49     0.00    0.00    0.00    0.00
   50    0.00    0.00    0.00    0.31    0.00    0.00   91.20    2.17    3.75    0.32    0.00    0.00    0.00    0.00    0.27     0.00    0.00    0.00    0.00
   51    0.00    0.00    0.00    0.30    0.00    0.00   89.11    2.08    3.90    0.32    0.00    0.00    0.00    0.00    0.34     0.00    0.00    0.00    0.00
   52    0.00    0.00    0.00    0.30    0.00    0.00   86.41    2.70    4.82    0.32    0.00    0.00    0.00    0.00    0.34     0.00    0.00    0.00    0.00
   53    0.00    0.00    0.00    0.30    0.00    0.00   83.85    2.56    4.38    0.31    0.00    0.00    0.00    0.00    0.34     0.00    0.00    0.00    0.00
   54    0.00    0.00    0.00    0.30    0.00    0.00   81.07    2.78    4.90    0.31    0.00    0.00    0.00    0.00    0.30     0.00    0.00    0.00    0.00
   55    0.00    0.00    0.00    0.29    0.00    0.00   78.47    2.60    4.11    0.31    0.00    0.00    0.00    0.00    0.31     0.00    0.00    0.00    0.00
   56    0.00    0.00    0.00    0.29    0.00    0.00   75.54    2.93    5.15    0.31    0.00    0.00    0.00    0.00    0.18     0.00    0.00    0.00    0.00
   57    0.00    0.00    0.00    0.29    0.00    0.00   72.53    3.01    5.19    0.30    0.00    0.00    0.00    0.00    0.24     0.00    0.00    0.00    0.00
   58    0.00    0.00    0.00    0.28    0.00    0.00   69.93    2.60    4.79    0.30    0.00    0.00    0.00    0.00    0.20     0.00    0.00    0.00    0.00
   59    0.00    0.00    0.00    0.28    0.00    0.00   67.25    2.68    5.26    0.30    0.00    0.00    0.00    0.00    0.15     0.00    0.00    0.00    0.00
    2  144.70   38.61   90.07    8.30    6.25    0.00   67.25   67.40  106.79  137.36    2.68    0.24    0.21    0.29    6.74     3.63    0.00    0.44    0.00
   60    0.00    0.00    0.00    0.28    0.00    0.00   64.58    2.67    4.20    0.29    0.00    0.00    0.00    0.00    0.17     0.00    0.00    0.00    0.00
   61    0.00    0.00    0.00    0.27    0.00    0.00   62.05    2.54    3.85    0.29    0.00    0.00    0.00    0.00    0.06     0.00    0.00    0.00    0.00
   62    0.00    0.00    0.00    0.27    0.00    0.00   59.24    2.81    4.36    0.28    0.00    0.00    0.00    0.00    0.06     0.00    0.00    0.00    0.00
   63    0.00    0.00    0.00    0.26    0.00    0.00   56.80    2.44    3.41    0.28    0.00    0.00    0.00    0.00    0.11     0.00    0.00    0.00    0.00
   64    0.00    0.00    0.00    0.26    0.00    0.00   54.55    2.25    5.15    0.28    0.00    0.00    0.00    0.00    0.05     0.00    0.00    0.00    0.00
   65    0.00    0.00    0.00    0.26    0.00    0.00   53.16    1.39    3.45    0.27    0.00    0.00    0.00    0.00    0.17     0.00    0.00    0.00    0.00
   66    0.00    0.00    0.00    0.25    0.00    0.00   52.03    1.13    1.86    0.27    0.00    0.00    0.00    0.00    0.07     0.00    0.00    0.00    0.00
   67    0.00    0.00    0.00    0.25    0.00    0.00   51.19    0.83    1.12    0.26    0.00    0.00    0.00    0.00    0.03     0.00    0.00    0.00    0.00
   68    0.00    0.00    0.00    0.24    0.00    0.00   49.18    2.01    3.03    0.26    0.00    0.00    0.00    0.00    0.01     0.00    0.00    0.00    0.00
   69    0.00    0.00    0.00    0.24    0.00    0.00   46.77    2.41    4.38    0.25    0.00    0.00    0.00    0.00    0.04     0.00    0.00    0.00    0.00
   70    5.60    0.00    1.29    0.24    0.00    0.00   47.27    3.14    4.12    1.54    0.00    0.00    0.01    0.00    0.06     0.00    0.00    0.00    0.00
   71    0.00    0.00    0.44    0.23    0.00    0.00   44.61    2.66    4.32    0.69    0.00    0.00    0.00    0.00    0.08     0.00    0.00    0.00    0.00
   72    1.80    0.00    0.32    0.22    0.00    0.00   42.86    3.29    3.99    0.56    0.00    0.00    0.00    0.00    0.08     0.00    0.00    0.00    0.00
   73    0.00    0.00    0.11    0.22    0.00    0.00   40.49    2.37    3.77    0.34    0.00    0.00    0.00    0.00    0.07     0.00    0.00    0.00    0.00
   74    2.80    0.00    0.52    0.21    0.00    0.00   39.15    3.40    4.46    0.75    0.00    0.00    0.00    0.00    0.06     0.00    0.00    0.00    0.00
   75   14.20    0.04    4.09    0.21    0.00    0.00   43.45    3.91    4.55    4.34    0.00    0.00    0.00    0.00    0.14     0.00    0.00    0.00    0.00
   76    0.50    0.00    1.41    0.19    0.00    0.00   40.65    3.30    4.95    1.61    0.00    0.00    0.00    0.00    0.19     0.00    0.00    0.00    0.00
   77    0.00    0.00    0.48    0.19    0.00    0.00   38.09    2.56    3.50    0.69    0.00    0.00    0.00    0.00    0.22     0.00    0.00    0.00    0.00
   78    5.60    0.00    1.46    0.19    0.00    0.00   37.87    3.83    5.04    1.67    0.00    0.00    0.00    0.00    0.13     0.00    0.00    0.00    0.00
   79    6.40    0.01    2.08    0.18    0.00    0.00   38.75    3.11    3.73    2.28    0.00    0.00    0.00    0.00    0.22     0.00    0.00    0.00    0.00
   80   17.80    0.09    5.72    0.16    0.00    0.00   45.76    3.06    3.33    5.99    0.00    0.00    0.00    0.00    0.09     0.00    0.00    0.00    0.00
   81    2.00    0.00    2.28    0.16    0.00    0.00   43.54    3.75    4.37    2.45    0.00    0.00    0.00    0.00    0.11     0.00    0.00    0.00    0.00
   82   17.30    0.09    6.21    0.15    0.00    0.00   49.77    2.71    2.83    6.47    0.00    0.00    0.00    0.00    0.20     0.00    0.00    0.00    0.00
   83    0.00    0.00    2.14    0.13    0.00    0.00   47.58    2.19    2.72    2.28    0.00    0.00    0.00    0.00    0.08     0.00    0.00    0.00    0.00
   84    3.30    0.00    1.43    0.10    0.00    0.00   46.71    3.10    3.39    1.55    0.00    0.00    0.00    0.00    0.07     0.00    0.00    0.00    0.00
   85   11.70    0.04    4.30    0.08    0.00    0.00   48.05    4.52    4.72    4.44    0.00    0.00    0.00    0.00    0.10     0.00    0.00    0.00    0.00
   86    3.00    0.00    2.02    0.09    0.00    0.00   47.71    2.52    2.77    2.12    0.00    0.00    0.00    0.00    0.18     0.00    0.00    0.00    0.00
   87    1.00    0.00    0.74    0.09    0.00    0.00   45.60    3.03    3.44    0.84    0.00    0.00    0.00    0.00    0.08     0.00    0.00    0.00    0.00
   88    0.80    0.00    0.26    0.09    0.00    0.00   43.79    2.61    3.18    0.36    0.00    0.00    0.00    0.00    0.11     0.00    0.00    0.00    0.00
   89    0.00    0.00    0.09    0.08    0.00    0.00   41.58    2.21    2.99    0.18    0.00    0.00    0.00    0.00    0.10     0.00    0.00    0.00    0.00
   90    0.00    0.00    0.03    0.06    0.00    0.00   38.73    2.85    4.38    0.11    0.00    0.00    0.00    0.00    0.08     0.00    0.00    0.00    0.00
    3   93.80    0.27   37.43    5.85    0.00    0.00   38.73   84.60  115.37   43.98    0.01    0.00    0.04    0.00    3.24     0.00    0.00    0.00    0.00
   91    0.30    0.00    0.01    0.06    0.00    0.00   35.96    3.07    4.74    0.08    0.00    0.00    0.00    0.00    0.17     0.00    0.00    0.00    0.00
   92    0.30    0.00    0.00    0.05    0.00    0.00   34.44    1.82    3.41    0.07    0.00    0.00    0.00    0.00    0.18     0.00    0.00    0.00    0.00
   93    0.30    0.00    0.00    0.05    0.00    0.00   32.80    1.95    4.71    0.07    0.00    0.00    0.00    0.00    0.07     0.00    0.00    0.00    0.00
   94    2.50    0.00    0.41    0.05    0.00    0.00   32.11    2.56    4.20    0.47    0.00    0.00    0.00    0.00    0.12     0.00    0.00    0.00    0.00
   95    2.30    0.00    0.49    0.04    0.00    0.00   31.09    2.79    4.56    0.55    0.00    0.00    0.00    0.00    0.11     0.00    0.00    0.00    0.00
   96    4.30    0.00    1.09    0.04    0.00    0.00   30.54    3.44    5.22    1.15    0.00    0.00    0.00    0.00    0.12     0.00    0.00    0.00    0.00
   97    0.00    0.00    0.38    0.03    0.00    0.00   28.86    1.69    5.58    0.42    0.00    0.00    0.00    0.00    0.15     0.00    0.00    0.00    0.00
   98    0.00    0.00    0.13    0.04    0.00    0.00   27.52    1.34    4.32    0.18    0.00    0.00    0.00    0.00    0.10     0.00    0.00    0.00    0.00
   99    1.80    0.00    0.20    0.04    0.00    0.00   27.04    2.05    4.03    0.24    0.00    0.00    0.00    0.00    0.07     0.00    0.00    0.00    0.00
  100    0.00    0.00    0.07    0.04    0.00    0.00   25.77    1.27    4.44    0.12    0.00    0.00    0.00    0.00    0.08     0.00    0.00    0.00    0.00
  101   11.90    0.02    3.24    0.03    0.00    0.00   28.93    3.82    4.99    3.30    0.00    0.00    0.00    0.00    0.09     0.00    0.00    0.00    0.00
  102    1.80    0.00    1.31    0.03    0.00    0.00   27.60    2.83    3.71    1.35    0.00    0.00    0.00    0.00    0.14     0.00    0.00    0.00    0.00
  103    1.30    0.00    0.55    0.03    0.00    0.00   26.75    1.99    3.23    0.60    0.00    0.00    0.00    0.00    0.03     0.00    0.00    0.00    0.00
  104    2.80    0.00    0.79    0.03    0.00    0.00   26.83    1.80    2.73    0.84    0.00    0.00    0.00    0.00    0.02     0.00    0.00    0.00    0.00
  105    2.30    0.00    0.74    0.03    0.00    0.00   26.20    2.21    3.39    0.79    0.00    0.00    0.00    0.00    0.02     0.00    0.00    0.00    0.00
  106    0.00    0.00    0.26    0.03    0.00    0.00   25.64    0.57    1.46    0.30    0.00    0.00    0.00    0.00    0.03     0.00    0.00    0.00    0.00
  107    0.00    0.00    0.09    0.03    0.00    0.00   24.93    0.70    2.90    0.13    0.00    0.00    0.00    0.00    0.01     0.00    0.00    0.00    0.00
  108    0.00    0.00    0.03    0.03    0.00    0.00   24.52    0.41    1.18    0.08    0.00    0.00    0.00    0.00    0.02     0.00    0.00    0.00    0.00
  109    0.00    0.00    0.01    0.03    0.00    0.00   23.84    0.68    2.08    0.06    0.00    0.00    0.00    0.00    0.00     0.00    0.00    0.00    0.00
  110    0.30    0.00    0.00    0.03    0.00    0.00   23.44    0.70    2.25    0.05    0.00    0.00    0.00    0.00    0.01     0.00    0.00    0.00    0.00
  111    1.00    0.00    0.00    0.02    0.00    0.00   22.54    1.91    4.16    0.03    0.00    0.00    0.00    0.00    0.01     0.00    0.00    0.00    0.00
  112    1.30    0.00    0.05    0.02    0.00    0.00   22.08    1.67    3.44    0.08    0.00    0.00    0.00    0.00    0.02     0.00    0.00    0.00    0.00
  113   98.00   14.75   33.37    0.02    0.01    0.00   51.24    3.24    3.28   48.14    0.09    0.00    0.01    0.00    0.01     0.09    0.00    0.01    0.00
  114    0.80    0.00   11.47    0.02    0.00    0.00   50.34    1.70    1.88   11.50    0.00    0.00    0.00    0.00    0.03     0.00    0.00    0.00    0.00
  115    0.00    0.00    3.94    0.01    0.00    0.00   46.66    3.68    5.04    3.97    0.00    0.00    0.00    0.00    0.01     0.00    0.00    0.00    0.00
  116    0.50    0.00    1.36    0.01    0.00    0.00   44.01    3.15    4.80    1.38    0.00    0.00    0.00    0.00    0.03     0.00    0.00    0.00    0.00
  117    7.10    0.02    2.26    0.01    0.00    0.00   44.44    3.93    5.04    2.29    0.00    0.00    0.00    0.00    0.00     0.00    0.00    0.00    0.00
  118   24.90    0.22    9.66    0.01    0.02    0.00   52.62    2.94    4.23    9.89    0.01    0.00    0.00    0.00    0.00     0.00    0.00    0.00    0.00
  119    3.80    0.00    4.15    0.01    0.00    0.00   52.08    3.07    4.00    4.18    0.00    0.00    0.00    0.00    0.00     0.00    0.00    0.00    0.00
  120   69.30   13.67   28.21    0.01    0.06    0.00   63.96    2.87    3.39   41.89    0.03    0.00    0.02    0.00    0.00     0.03    0.00    0.00    0.00
    4  238.90   28.68  104.27    0.91    0.10    0.00   63.96   65.84  112.38  134.21    0.14    0.00    0.03    0.00    1.65     0.12    0.00    0.02    0.00
  121    4.60    0.01   10.89    0.01    0.00    0.00   64.16    2.58    2.88   10.92    0.00    0.00    0.01    0.00    0.00     0.00    0.00    0.00    0.00
  122    4.60    0.01    5.01    0.01    0.00    0.00   64.10    2.72    3.11    5.04    0.00    0.00    0.00    0.00    0.00     0.00    0.00    0.00    0.00
  123    4.60    0.01    2.96    0.01    0.00    0.00   63.91    2.89    3.42    2.99    0.00    0.00    0.00    0.00    0.00     0.00    0.00    0.00    0.00
  124    0.00    0.00    1.02    0.01    0.00    0.00   61.85    2.06    3.91    1.04    0.00    0.00    0.00    0.00    0.00     0.00    0.00    0.00    0.00
  125    0.00    0.00    0.35    0.00    0.00    0.00   59.78    2.07    5.00    0.37    0.00    0.00    0.00    0.00    0.00     0.00    0.00    0.00    0.00
  126    1.00    0.00    0.12    0.00    0.00    0.00   57.83    2.95    6.20    0.14    0.00    0.00    0.00    0.00    0.00     0.00    0.00    0.00    0.00
  127    2.00    0.00    0.31    0.00    0.00    0.00   56.73    2.69    5.44    0.32    0.00    0.00    0.00    0.00    0.00     0.00    0.00    0.00    0.00
  128    1.00    0.00    0.11    0.00    0.00    0.00   55.59    2.14    4.08    0.12    0.00    0.00    0.00    0.00    0.00     0.00    0.00    0.00    0.00
  129    0.00    0.00    0.04    0.00    0.00    0.00   54.09    1.50    4.94    0.05    0.00    0.00    0.00    0.00    0.00     0.00    0.00    0.00    0.00
  130    9.70    0.03    2.54    0.00    0.00    0.00   56.97    2.93    5.23    2.58    0.00    0.00    0.00    0.00    0.00     0.00    0.00    0.00    0.00
  131   33.50    1.48   14.55    0.00    0.03    0.00   66.21    1.91    2.08   16.04    0.01    0.00    0.02    0.00    0.00     0.01    0.00    0.00    0.00
  132    7.90    0.02    8.31    0.00    0.02    0.00   66.46    2.55    2.80    8.35    0.00    0.00    0.01    0.00    0.00     0.00    0.00    0.00    0.00
  133    1.80    0.00    3.09    0.00    0.00    0.00   65.21    2.70    3.35    3.11    0.00    0.00    0.00    0.00    0.00     0.00    0.00    0.00    0.00
  134    5.60    0.01    2.50    0.00    0.00    0.00   65.31    3.29    4.07    2.53    0.00    0.00    0.00    0.00    0.00     0.00    0.00    0.00    0.00
  135    0.50    0.00    0.86    0.00    0.00    0.00   63.33    2.48    4.28    0.88    0.00    0.00    0.00    0.00    0.00     0.00    0.00    0.00    0.00
  136    1.80    0.00    0.49    0.00    0.00    0.00   62.02    2.81    4.55    0.51    0.00    0.00    0.00    0.00    0.00     0.00    0.00    0.00    0.00
  137    0.00    0.00    0.17    0.00    0.00    0.00   60.29    1.73    4.55    0.18    0.00    0.00    0.00    0.00    0.00     0.00    0.00    0.00    0.00
  138    6.90    0.01    1.75    0.00    0.00    0.00   61.52    3.09    5.01    1.78    0.00    0.00    0.00    0.00    0.00     0.00    0.00    0.00    0.00
  139   11.90    0.04    4.36    0.00    0.01    0.00   64.47    3.16    3.93    4.41    0.00    0.00    0.00    0.00    0.00     0.00    0.00    0.00    0.00
  140    0.50    0.00    1.50    0.00    0.00    0.00   62.39    2.58    4.55    1.51    0.00    0.00    0.00    0.00    0.00     0.00    0.00    0.00    0.00
  141    0.00    0.00    0.52    0.00    0.00    0.00   60.32    2.07    5.23    0.53    0.00    0.00    0.00    0.00    0.00     0.00    0.00    0.00    0.00
  142    0.00    0.00    0.18    0.00    0.00    0.00   58.80    1.52    4.56    0.19    0.00    0.00    0.00    0.00    0.00     0.00    0.00    0.00    0.00
  143    5.60    0.01    1.35    0.00    0.00    0.00   59.91    2.52    4.28    1.37    0.00    0.00    0.00    0.00    0.02     0.00    0.00    0.00    0.00
  144    4.60    0.00    1.53    0.00    0.00    0.00   60.15    2.73    4.57    1.54    0.00    0.00    0.00    0.00    0.02     0.00    0.00    0.00    0.00
  145    0.00    0.00    0.53    0.00    0.00    0.00   58.25    1.91    5.39    0.54    0.00    0.00    0.00    0.00    0.03     0.00    0.00    0.00    0.00
  146    6.10    0.01    1.63    0.00    0.00    0.00   59.31    2.83    4.89    1.65    0.00    0.00    0.00    0.00    0.02     0.00    0.00    0.00    0.00
  147    1.30    0.00    0.64    0.00    0.00    0.00   58.11    2.38    4.25    0.65    0.00    0.00    0.00    0.00    0.02     0.00    0.00    0.00    0.00
  148    4.10    0.00    1.13    0.00    0.00    0.00   58.25    2.57    4.57    1.15    0.00    0.00    0.00    0.00    0.02     0.00    0.00    0.00    0.00
  149    0.80    0.00    0.39    0.00    0.00    0.00   56.74    2.31    5.16    0.40    0.00    0.00    0.00    0.00    0.00     0.00    0.00    0.00    0.00
  150   13.50    0.04    4.01    0.00    0.01    0.00   61.16    3.12    4.15    4.06    0.00    0.00    0.00    0.00    0.00     0.00    0.00    0.00    0.00
  151    0.80    0.00    1.38    0.00    0.00    0.00   59.83    2.13    3.20    1.39    0.00    0.00    0.00    0.00    0.00     0.00    0.00    0.00    0.00
    5  134.70    1.67   74.21    0.14    0.09    0.00   59.83   76.92  133.62   76.33    0.01    0.00    0.08    0.00    0.21     0.01    0.00    0.00    0.00
  152    1.80    0.00    0.69    0.00    0.00    0.00   58.94    2.36    3.46    0.70    0.00    0.00    0.00    0.00    0.00     0.00    0.00    0.00    0.00
  153    1.80    0.00    0.46    0.00    0.00    0.00   58.16    2.23    3.39    0.48    0.00    0.00    0.00    0.00    0.00     0.00    0.00    0.00    0.00
  154    0.00    0.00    0.16    0.00    0.00    0.00   56.62    1.54    4.38    0.17    0.00    0.00    0.00    0.00    0.00     0.00    0.00    0.00    0.00
  155    9.40    0.01    2.50    0.00    0.00    0.00   59.45    2.82    4.00    2.52    0.00    0.00    0.00    0.00    0.00     0.00    0.00    0.00    0.00
  156  174.20   90.46   42.96    0.00    0.20    0.00   76.28    2.54    2.78  133.41    0.40    0.01    0.11    0.00    0.00     0.51    0.01    0.06    0.00
  157    0.30    0.00   14.77    0.00    0.00    0.00   75.14    1.44    2.45   14.79    0.00    0.00    0.04    0.00    0.00     0.00    0.00    0.00    0.00
  158    1.80    0.00    5.31    0.00    0.00    0.00   74.95    1.63    1.81    5.33    0.00    0.00    0.01    0.00    0.00     0.00    0.00    0.00    0.00
  159    0.30    0.00    1.83    0.00    0.00    0.00   73.58    1.67    2.80    1.84    0.00    0.00    0.00    0.00    0.00     0.00    0.00    0.00    0.00
  160   11.70    0.04    4.68    0.00    0.06    0.00   76.43    2.56    2.79    4.74    0.00    0.00    0.01    0.00    0.00     0.00    0.00    0.00    0.00
  161    5.30    0.01    3.28    0.00    0.03    0.00   76.62    2.54    2.75    3.30    0.00    0.00    0.00    0.00    0.00     0.00    0.00    0.00    0.00
  162    0.30    0.00    1.13    0.00    0.00    0.00   75.57    1.36    2.27    1.14    0.00    0.00    0.00    0.00    0.00     0.00    0.00    0.00    0.00
  163    0.80    0.00    0.39    0.01    0.00    0.00   74.32    2.05    2.73    0.40    0.00    0.00    0.00    0.00    0.00     0.00    0.00    0.00    0.00
  164   10.70    0.03    3.78    0.01    0.05    0.00   76.88    2.48    2.67    3.83    0.00    0.00    0.01    0.00    0.00     0.00    0.00    0.00    0.00
  165    0.80    0.00    1.30    0.01    0.00    0.00   75.17    2.51    3.64    1.32    0.00    0.00    0.00    0.00    0.00     0.00    0.00    0.00    0.00
  166    1.80    0.00    0.66    0.01    0.00    0.00   74.30    2.34    3.20    0.68    0.00    0.00    0.00    0.00    0.00     0.00    0.00    0.00    0.00
  167   30.50    2.07   13.49    0.01    0.18    0.00   79.85    2.47    2.69   15.57    0.01    0.00    0.03    0.00    0.00     0.01    0.00    0.00    0.00
  168    0.80    0.00    4.64    0.01    0.00    0.00   78.14    2.51    3.57    4.66    0.00    0.00    0.01    0.00    0.00     0.00    0.00    0.00    0.00
  169    1.50    0.00    1.72    0.01    0.00    0.00   77.38    2.08    2.58    1.74    0.00    0.00    0.00    0.00    0.00     0.00    0.00    0.00    0.00
  170    0.50    0.00    0.59    0.01    0.00    0.00   76.63    1.25    2.34    0.61    0.00    0.00    0.00    0.00    0.00     0.00    0.00    0.00    0.00
  171    0.30    0.00    0.21    0.01    0.00    0.00   75.70    1.24    2.57    0.22    0.00    0.00    0.00    0.00    0.00     0.00    0.00    0.00    0.00
  172    0.00    0.00    0.07    0.01    0.00    0.00   74.27    1.42    3.73    0.09    0.00    0.00    0.00    0.00    0.00     0.00    0.00    0.00    0.00
  173    4.10    0.00    0.88    0.01    0.00    0.00   74.51    2.55    4.49    0.90    0.00    0.00    0.00    0.00    0.00     0.00    0.00    0.00    0.00
  174    6.10    0.01    1.82    0.01    0.01    0.00   75.67    2.62    3.95    1.84    0.00    0.00    0.00    0.00    0.00     0.00    0.00    0.00    0.00
  175    8.90    0.02    3.14    0.01    0.04    0.00   78.14    2.53    2.79    3.18    0.00    0.00    0.00    0.00    0.00     0.00    0.00    0.00    0.00
  176   17.30    0.16    8.85    0.01    0.12    0.00   81.38    1.94    2.08    9.03    0.00    0.00    0.02    0.00    0.00     0.00    0.00    0.00    0.00
  177    0.00    0.00    3.05    0.01    0.00    0.00   79.94    1.44    2.57    3.06    0.00    0.00    0.01    0.00    0.00     0.00    0.00    0.00    0.00
  178    0.00    0.00    1.05    0.01    0.00    0.00   79.24    0.70    1.46    1.07    0.00    0.00    0.00    0.00    0.00     0.00    0.00    0.00    0.00
  179    3.00    0.00    0.89    0.01    0.00    0.00   78.80    2.63    3.51    0.91    0.00    0.00    0.00    0.00    0.00     0.00    0.00    0.00    0.00
  180    0.30    0.00    0.31    0.01    0.00    0.00   77.62    1.48    2.96    0.32    0.00    0.00    0.00    0.00    0.00     0.00    0.00    0.00    0.00
  181    4.80    0.00    1.22    0.01    0.00    0.00   78.76    1.95    2.17    1.24    0.00    0.00    0.00    0.00    0.00     0.00    0.00    0.00    0.00
    6  299.10   92.82  125.85    0.19    0.69    0.00   78.76   60.89   88.56  219.08    0.42    0.01    0.27    0.01    0.00     0.52    0.01    0.06    0.00
  182    2.30    0.00    0.81    0.01    0.00    0.00   77.77    2.70    3.82    0.82    0.00    0.00    0.00    0.00    0.00     0.00    0.00    0.00    0.00
  183   14.00    0.06    5.54    0.01    0.08    0.00   80.67    2.93    3.44    5.62    0.00    0.00    0.01    0.00    0.00     0.00    0.00    0.00    0.00
  184    6.90    0.01    4.29    0.01    0.04    0.00   80.15    3.74    4.90    4.32    0.00    0.00    0.01    0.00    0.00     0.00    0.00    0.00    0.00
  185    0.00    0.00    1.48    0.01    0.00    0.00   78.14    2.01    4.32    1.50    0.00    0.00    0.00    0.00    0.00     0.00    0.00    0.00    0.00
  186    7.60    0.01    2.42    0.01    0.01    0.00   79.83    2.98    3.70    2.45    0.00    0.00    0.00    0.00    0.00     0.00    0.00    0.00    0.00
  187    1.50    0.00    0.97    0.01    0.00    0.00   78.36    2.75    3.88    0.99    0.00    0.00    0.00    0.00    0.00     0.00    0.00    0.00    0.00
  188    5.10    0.00    1.55    0.01    0.01    0.00   80.52    1.08    1.16    1.57    0.00    0.00    0.00    0.00    0.00     0.00    0.00    0.00    0.00
  189    0.30    0.00    0.53    0.01    0.00    0.00   79.43    1.39    1.85    0.55    0.00    0.00    0.00    0.00    0.00     0.00    0.00    0.00    0.00
  190    0.00    0.00    0.18    0.01    0.00    0.00   78.25    1.18    2.26    0.20    0.00    0.00    0.00    0.00    0.00     0.00    0.00    0.00    0.00
  191    2.80    0.00    0.60    0.01    0.00    0.00   78.17    2.06    2.40    0.61    0.00    0.00    0.00    0.00    0.00     0.00    0.00    0.00    0.00
  192    0.30    0.00    0.21    0.01    0.00    0.00   77.34    1.14    2.26    0.22    0.00    0.00    0.00    0.00    0.00     0.00    0.00    0.00    0.00
  193   14.70    0.07    5.44    0.01    0.07    0.00   81.69    2.02    2.14    5.53    0.00    0.00    0.01    0.00    0.00     0.00    0.00    0.00    0.00
  194   24.40    1.15   13.59    0.01    0.24    0.00   85.29    1.54    1.63   14.75    0.01    0.00    0.04    0.00    0.00     0.01    0.00    0.00    0.00
  195    2.00    0.00    5.05    0.01    0.00    0.00   84.86    1.87    1.98    5.06    0.00    0.00    0.01    0.00    0.00     0.00    0.00    0.00    0.00
  196    9.40    0.03    5.89    0.01    0.13    0.00   85.22    2.54    2.72    5.94    0.00    0.00    0.02    0.00    0.00     0.00    0.00    0.00    0.00
  197    5.10    0.01    3.60    0.01    0.03    0.00   84.92    2.95    3.42    3.63    0.00    0.00    0.01    0.00    0.00     0.00    0.00    0.00    0.00
  198   31.80    3.38   15.49    0.01    0.41    0.00   87.80    3.41    4.22   18.89    0.01    0.00    0.04    0.01    0.00     0.01    0.00    0.00    0.00
  199   10.40    0.04    9.44    0.01    0.10    0.00   88.80    2.99    3.47    9.50    0.00    0.00    0.02    0.00    0.00     0.00    0.00    0.00    0.00
  200   33.50    4.40   17.95    0.02    0.70    0.00   91.53    3.25    3.91   22.37    0.04    0.00    0.04    0.01    0.00     0.05    0.00    0.01    0.00
  201   27.40    2.55   18.48    0.02    0.73    0.00   94.42    2.47    2.61   21.05    0.00    0.00    0.03    0.01    0.00     0.03    0.00    0.00    0.00
  202    0.00    0.00    6.36    0.02    0.00    0.00   93.55    0.87    1.58    6.38    0.00    0.00    0.01    0.00    0.00     0.00    0.00    0.00    0.00
  203    0.00    0.00    2.19    0.02    0.00    0.00   92.38    1.17    2.30    2.22    0.00    0.00    0.00    0.00    0.00     0.00    0.00    0.00    0.00
  204    0.00    0.00    0.76    0.02    0.00    0.00   90.98    1.40    3.31    0.78    0.00    0.00    0.00    0.00    0.00     0.00    0.00    0.00    0.00
  205   13.70    0.10    5.11    0.02    0.14    0.00   93.24    3.81    4.87    5.24    0.00    0.00    0.01    0.00    0.00     0.00    0.00    0.00    0.00
  206    0.00    0.00    1.76    0.02    0.00    0.00   90.56    2.67    5.71    1.79    0.00    0.00    0.00    0.00    0.00     0.00    0.00    0.00    0.00
  207    0.00    0.00    0.61    0.03    0.00    0.00   88.84    1.73    4.86    0.64    0.00    0.00    0.00    0.00    0.00     0.00    0.00    0.00    0.00
  208   23.40    1.30    8.84    0.03    0.29    0.00   93.79    3.70    4.67   10.17    0.01    0.00    0.01    0.01    0.00     0.01    0.00    0.00    0.00
  209    4.10    0.00    3.96    0.03    0.00    0.00   93.24    3.25    4.17    3.99    0.00    0.00    0.00    0.00    0.00     0.00    0.00    0.00    0.00
  210    4.80    0.01    2.49    0.03    0.01    0.00   93.10    3.20    4.02    2.53    0.00    0.00    0.00    0.00    0.00     0.00    0.00    0.00    0.00
  211    0.50    0.00    0.86    0.03    0.00    0.00   91.31    2.29    3.87    0.89    0.00    0.00    0.00    0.00    0.00     0.00    0.00    0.00    0.00
  212    2.80    0.00    0.79    0.03    0.00    0.00   90.84    2.52    3.58    0.83    0.00    0.00    0.00    0.00    0.00     0.00    0.00    0.00    0.00
    7  248.80   13.13  147.23    0.53    3.00    0.00   90.84   73.59  103.06  161.06    0.07    0.00    0.28    0.05    0.02     0.10    0.00    0.01    0.00
  213    9.70    0.03    3.12    0.03    0.02    0.00   93.54    2.61    2.80    3.18    0.00    0.00    0.00    0.00    0.00     0.00    0.00    0.00    0.00
  214    0.30    0.00    1.07    0.03    0.00    0.00   92.22    1.61    2.72    1.11    0.00    0.00    0.00    0.00    0.00     0.00    0.00    0.00    0.00
  215   21.10    0.99    9.43    0.03    0.41    0.00   96.19    1.91    2.01   10.46    0.01    0.00    0.02    0.01    0.00     0.01    0.00    0.00    0.00
  216   14.00    0.16    9.98    0.03    0.46    0.00   96.07    3.23    3.81   10.19    0.00    0.00    0.02    0.01    0.00     0.00    0.00    0.00    0.00
  217   16.50    0.41   10.89    0.04    0.47    0.00   97.19    3.13    3.65   11.34    0.00    0.00    0.02    0.01    0.00     0.00    0.00    0.00    0.00
  218    4.80    0.01    4.96    0.04    0.01    0.00   96.83    3.28    3.91    5.01    0.00    0.00    0.01    0.00    0.00     0.00    0.00    0.00    0.00
  219    0.00    0.00    1.71    0.04    0.00    0.00   94.11    2.72    5.48    1.75    0.00    0.00    0.00    0.00    0.00     0.00    0.00    0.00    0.00
  220    0.50    0.00    0.59    0.04    0.00    0.00   91.87    2.74    6.28    0.64    0.00    0.00    0.00    0.00    0.00     0.00    0.00    0.00    0.00
  221    7.10    0.01    1.97    0.04    0.00    0.00   92.97    3.29    5.25    2.03    0.00    0.00    0.00    0.00    0.00     0.00    0.00    0.00    0.00
  222   74.70   29.56   22.86    0.04    1.52    0.00  100.15    2.64    2.79   52.46    0.20    0.00    0.04    0.03    0.00     0.31    0.00    0.04    0.00
  223    0.00    0.00    7.86    0.05    0.00    0.00   98.08    2.06    3.76    7.92    0.00    0.00    0.01    0.00    0.00     0.00    0.00    0.00    0.00
  224    0.30    0.00    2.71    0.05    0.00    0.00   96.94    1.44    2.92    2.76    0.00    0.00    0.00    0.00    0.00     0.00    0.00    0.00    0.00
  225    0.00    0.00    0.93    0.05    0.00    0.00   95.45    1.49    3.71    0.99    0.00    0.00    0.00    0.00    0.00     0.00    0.00    0.00    0.00
  226    0.00    0.00    0.32    0.05    0.00    0.00   93.87    1.58    4.66    0.38    0.00    0.00    0.00    0.00    0.00     0.00    0.00    0.00    0.00
  227   30.00    3.73   10.85    0.05    0.49    0.00   99.22    4.06    5.21   14.64    0.04    0.00    0.01    0.01    0.00     0.05    0.00    0.01    0.00
  228  103.10   54.20   29.34    0.06    2.30    0.00  103.64    3.14    3.60   83.59    0.79    0.00    0.04    0.06    0.00     1.31    0.00    0.17    0.00
  229   88.60   44.10   33.88    0.07    2.53    0.00  107.73    1.60    1.67   78.05    0.00    0.00    0.05    0.06    0.00     0.42    0.00    0.05    0.00
  230    8.10    0.02   15.41    0.07    0.35    0.00  108.02    1.72    1.79   15.51    0.00    0.00    0.02    0.01    0.00     0.00    0.00    0.00    0.00
  231   37.60    9.17   20.60    0.08    1.64    0.00  109.79    1.69    1.76   29.86    0.05    0.00    0.03    0.04    0.00     0.06    0.00    0.01    0.00
  232    0.50    0.00    7.09    0.09    0.00    0.00  109.18    1.11    1.42    7.19    0.00    0.00    0.01    0.00    0.00     0.00    0.00    0.00    0.00
  233   13.00    0.31    8.52    0.10    0.53    0.00  109.53    2.54    2.65    8.94    0.01    0.00    0.01    0.01    0.00     0.01    0.00    0.00    0.00
  234    0.00    0.00    2.94    0.10    0.00    0.00  106.54    2.98    5.41    3.04    0.00    0.00    0.00    0.00    0.00     0.00    0.00    0.00    0.00
  235    0.00    0.00    1.01    0.11    0.00    0.00  104.75    1.80    4.36    1.13    0.00    0.00    0.00    0.00    0.00     0.00    0.00    0.00    0.00
  236    1.30    0.00    0.35    0.11    0.00    0.00  103.78    2.26    3.48    0.48    0.00    0.00    0.00    0.00    0.00     0.00    0.00    0.00    0.00
  237    0.80    0.00    0.12    0.12    0.00    0.00  102.56    2.02    3.63    0.25    0.00    0.00    0.00    0.00    0.00     0.00    0.00    0.00    0.00
  238   30.20    4.93   10.10    0.13    0.48    0.00  108.99    3.02    3.33   15.16    0.04    0.00    0.01    0.01    0.00     0.06    0.00    0.01    0.00
  239    0.50    0.00    3.48    0.13    0.00    0.00  107.00    2.49    3.82    3.61    0.00    0.00    0.00    0.00    0.00     0.00    0.00    0.00    0.00
  240    0.00    0.00    1.20    0.13    0.00    0.00  105.19    1.80    4.00    1.34    0.00    0.00    0.00    0.00    0.00     0.00    0.00    0.00    0.00
  241    0.00    0.00    0.41    0.14    0.00    0.00  103.72    1.47    3.93    0.56    0.00    0.00    0.00    0.00    0.00     0.00    0.00    0.00    0.00
  242    0.00    0.00    0.14    0.14    0.00    0.00  101.98    1.75    5.28    0.29    0.00    0.00    0.00    0.00    0.00     0.00    0.00    0.00    0.00
  243    5.10    0.00    1.19    0.15    0.00    0.00  103.02    2.32    3.58    1.34    0.00    0.00    0.00    0.00    0.00     0.00    0.00    0.00    0.00
    8  467.80  147.63  225.04    2.34   11.19    0.00  103.02   71.55  112.66  375.19    1.14    0.02    0.32    0.25    0.01     2.23    0.01    0.28    0.00
  244   44.70   12.49   14.79    0.15    0.97    0.00  109.45    2.87    3.07   27.43    0.14    0.00    0.02    0.02    0.00     0.20    0.00    0.03    0.00
  245    2.80    0.00    5.61    0.15    0.00    0.00  108.94    2.51    2.65    5.78    0.00    0.00    0.01    0.00    0.00     0.00    0.00    0.00    0.00
  246    1.30    0.00    2.01    0.16    0.00    0.00  108.44    1.67    1.74    2.17    0.00    0.00    0.00    0.00    0.00     0.00    0.00    0.00    0.00
  247    0.00    0.00    0.69    0.16    0.00    0.00  106.52    1.92    3.45    0.86    0.00    0.00    0.00    0.00    0.00     0.00    0.00    0.00    0.00
  248    0.00    0.00    0.24    0.16    0.00    0.00  104.70    1.82    4.25    0.41    0.00    0.00    0.00    0.00    0.00     0.00    0.00    0.00    0.00
  249    0.00    0.00    0.08    0.16    0.00    0.00  103.05    1.66    4.63    0.25    0.00    0.00    0.00    0.00    0.00     0.00    0.00    0.00    0.00
  250   25.10    2.97    8.42    0.16    0.32    0.00  107.76    4.29    5.44   11.57    0.03    0.00    0.01    0.01    0.00     0.04    0.00    0.00    0.00
  251   12.70    0.25    7.91    0.17    0.28    0.00  109.26    3.02    3.31    8.33    0.00    0.00    0.01    0.01    0.00     0.00    0.00    0.00    0.00
  252    7.40    0.02    5.43    0.17    0.14    0.00  109.47    2.90    3.11    5.62    0.00    0.00    0.01    0.00    0.00     0.00    0.00    0.00    0.00
  253    3.60    0.00    2.64    0.17    0.00    0.00  108.20    3.69    4.51    2.82    0.00    0.00    0.00    0.00    0.00     0.00    0.00    0.00    0.00
  254    0.30    0.00    0.91    0.17    0.00    0.00  105.22    3.28    6.17    1.09    0.00    0.00    0.00    0.00    0.00     0.00    0.00    0.00    0.00
  255    1.30    0.00    0.35    0.17    0.00    0.00  102.93    3.54    6.84    0.53    0.00    0.00    0.00    0.00    0.00     0.00    0.00    0.00    0.00
  256    8.40    0.01    2.32    0.17    0.00    0.00  104.18    3.78    5.95    2.51    0.00    0.00    0.00    0.00    0.00     0.00    0.00    0.00    0.00
  257    0.30    0.00    0.80    0.17    0.00    0.00  102.16    2.32    5.12    0.98    0.00    0.00    0.00    0.00    0.00     0.00    0.00    0.00    0.00
  258    2.30    0.00    0.61    0.17    0.00    0.00  101.24    2.72    4.99    0.79    0.00    0.00    0.00    0.00    0.00     0.00    0.00    0.00    0.00
  259    3.30    0.00    0.89    0.17    0.00    0.00  100.65    2.85    5.40    1.06    0.00    0.00    0.00    0.00    0.00     0.00    0.00    0.00    0.00
  260    5.60    0.00    1.67    0.17    0.00    0.00  101.78    2.39    3.56    1.85    0.00    0.00    0.00    0.00    0.00     0.00    0.00    0.00    0.00
  261   16.50    0.66    5.99    0.17    0.04    0.00  105.40    3.92    4.89    6.82    0.01    0.00    0.00    0.00    0.00     0.01    0.00    0.00    0.00
  262    0.30    0.00    2.06    0.17    0.00    0.00  103.30    2.41    4.39    2.23    0.00    0.00    0.00    0.00    0.00     0.00    0.00    0.00    0.00
  263    0.30    0.00    0.71    0.17    0.00    0.00  100.84    2.75    6.43    0.88    0.00    0.00    0.00    0.00    0.00     0.00    0.00    0.00    0.00
  264   14.70    0.35    4.63    0.16    0.02    0.00  104.90    3.59    4.35    5.15    0.01    0.00    0.00    0.00    0.00     0.01    0.00    0.00    0.00
  265    1.50    0.00    1.73    0.16    0.00    0.00  103.01    3.18    4.55    1.90    0.00    0.00    0.00    0.00    0.00     0.00    0.00    0.00    0.00
  266    0.30    0.00    0.60    0.16    0.00    0.00  100.18    3.13    6.91    0.77    0.00    0.00    0.00    0.00    0.00     0.00    0.00    0.00    0.00
  267    0.00    0.00    0.21    0.16    0.00    0.00   97.93    2.24    6.88    0.37    0.00    0.00    0.00    0.00    0.00     0.00    0.00    0.00    0.00
  268    0.50    0.00    0.07    0.16    0.00    0.00   96.09    2.35    7.18    0.24    0.00    0.00    0.00    0.00    0.00     0.00    0.00    0.00    0.00
  269    0.00    0.00    0.02    0.16    0.00    0.00   94.22    1.86    7.49    0.19    0.00    0.00    0.00    0.00    0.00     0.00    0.00    0.00    0.00
  270    0.00    0.00    0.01    0.15    0.00    0.00   92.48    1.74    8.04    0.17    0.00    0.00    0.00    0.00    0.00     0.00    0.00    0.00    0.00
  271   10.90    0.03    2.87    0.15    0.00    0.00   96.06    2.92    5.93    3.06    0.00    0.00    0.00    0.00    0.00     0.00    0.00    0.00    0.00
  272    0.30    0.00    0.99    0.15    0.00    0.00   94.81    1.55    4.02    1.14    0.00    0.00    0.00    0.00    0.00     0.00    0.00    0.00    0.00
  273    2.30    0.00    0.67    0.15    0.00    0.00   94.17    2.44    5.20    0.83    0.00    0.00    0.00    0.00    0.00     0.00    0.00    0.00    0.00
    9  166.70   16.79   75.93    4.87    1.78    0.00   94.17   81.32  150.44   97.80    0.19    0.00    0.07    0.04    0.00     0.27    0.00    0.03    0.00
  274    0.00    0.00    0.23    0.15    0.00    0.00   92.70    1.47    5.18    0.38    0.00    0.00    0.00    0.00    0.00     0.00    0.00    0.00    0.00
  275    7.10    0.01    1.83    0.14    0.00    0.00   94.94    2.19    3.73    1.99    0.00    0.00    0.00    0.00    0.00     0.00    0.00    0.00    0.00
  276    0.50    0.00    0.63    0.14    0.00    0.00   93.57    1.87    4.51    0.78    0.00    0.00    0.00    0.00    0.00     0.00    0.00    0.00    0.00
  277    0.00    0.00    0.22    0.14    0.00    0.00   91.93    1.65    5.98    0.36    0.00    0.00    0.00    0.00    0.00     0.00    0.00    0.00    0.00
  278    0.50    0.00    0.07    0.13    0.00    0.00   90.69    1.74    5.73    0.22    0.00    0.00    0.00    0.00    0.00     0.00    0.00    0.00    0.00
  279    1.50    0.00    0.12    0.13    0.00    0.00   90.19    1.86    3.84    0.26    0.00    0.00    0.00    0.00    0.00     0.00    0.00    0.00    0.00
  280    2.50    0.00    0.48    0.13    0.00    0.00   90.04    1.99    4.35    0.61    0.00    0.00    0.00    0.00    0.00     0.00    0.00    0.00    0.00
  281    0.30    0.00    0.16    0.13    0.00    0.00   89.30    1.04    3.21    0.30    0.00    0.00    0.00    0.00    0.00     0.00    0.00    0.00    0.00
  282    0.50    0.00    0.06    0.13    0.00    0.00   88.38    1.42    4.46    0.19    0.00    0.00    0.00    0.00    0.00     0.00    0.00    0.00    0.00
  283   72.40   26.95   17.79    0.12    0.12    0.00  102.99    3.62    4.38   44.86    0.37    0.01    0.03    0.00    0.00     0.57    0.00    0.07    0.00
  284    9.90    0.04    9.72    0.12    0.08    0.00  103.52    3.75    4.57    9.89    0.00    0.00    0.02    0.00    0.00     0.00    0.00    0.00    0.00
  285    0.30    0.00    3.34    0.12    0.00    0.00  101.38    2.44    4.36    3.47    0.00    0.00    0.01    0.00    0.00     0.00    0.00    0.00    0.00
  286    6.10    0.01    2.62    0.11    0.00    0.00  101.72    3.51    4.78    2.75    0.00    0.00    0.00    0.00    0.00     0.00    0.00    0.00    0.00
  287    0.30    0.00    0.90    0.11    0.00    0.00   99.11    2.92    6.00    1.02    0.00    0.00    0.00    0.00    0.00     0.00    0.00    0.00    0.00
  288   43.70   11.11   14.93    0.11    0.77    0.00  104.59    4.05    5.04   26.15    0.13    0.00    0.03    0.02    0.00     0.20    0.00    0.02    0.00
  289    0.00    0.00    5.14    0.10    0.00    0.00  101.94    2.65    5.45    5.25    0.00    0.00    0.01    0.00    0.00     0.00    0.00    0.00    0.00
  290    2.30    0.00    2.08    0.10    0.00    0.00  100.62    3.14    5.42    2.19    0.00    0.00    0.00    0.00    0.00     0.00    0.00    0.00    0.00
  291    2.00    0.00    1.01    0.10    0.00    0.00   98.76    3.42    6.87    1.11    0.00    0.00    0.00    0.00    0.00     0.00    0.00    0.00    0.00
  292   27.40    3.38    9.57    0.10    0.30    0.00  104.37    4.04    5.03   13.05    0.08    0.00    0.01    0.01    0.00     0.11    0.00    0.01    0.00
  293    6.10    0.01    4.89    0.09    0.01    0.00  103.81    4.20    5.31    5.00    0.00    0.00    0.01    0.00    0.00     0.00    0.00    0.00    0.00
  294    0.00    0.00    1.68    0.09    0.00    0.00  101.14    2.67    5.60    1.78    0.00    0.00    0.00    0.00    0.00     0.00    0.00    0.00    0.00
  295    0.00    0.00    0.58    0.09    0.00    0.00   99.16    1.98    5.41    0.67    0.00    0.00    0.00    0.00    0.00     0.00    0.00    0.00    0.00
  296    0.00    0.00    0.20    0.08    0.00    0.00   96.94    2.22    7.16    0.29    0.00    0.00    0.00    0.00    0.00     0.00    0.00    0.00    0.00
  297    1.00    0.00    0.07    0.08    0.00    0.00   95.51    2.43    6.12    0.16    0.00    0.00    0.00    0.00    0.00     0.00    0.00    0.00    0.00
  298    0.00    0.00    0.02    0.06    0.00    0.00   93.85    1.66    6.24    0.09    0.00    0.00    0.00    0.00    0.00     0.00    0.00    0.00    0.00
  299    0.00    0.00    0.01    0.06    0.00    0.00   92.44    1.40    6.22    0.08    0.00    0.00    0.00    0.00    0.00     0.00    0.00    0.00    0.00
  300    0.00    0.00    0.00    0.05    0.00    0.00   90.81    1.63    7.96    0.06    0.00    0.00    0.00    0.00    0.00     0.00    0.00    0.00    0.00
  301    0.00    0.00    0.00    0.05    0.00    0.00   89.52    1.29    6.86    0.06    0.00    0.00    0.00    0.00    0.00     0.00    0.00    0.00    0.00
  302    0.30    0.00    0.00    0.04    0.00    0.00   88.73    1.09    4.85    0.05    0.00    0.00    0.00    0.00    0.00     0.00    0.00    0.00    0.00
  303   12.70    0.05    3.42    0.04    0.00    0.00   93.73    2.43    4.76    3.52    0.00    0.00    0.00    0.00    0.00     0.00    0.00    0.00    0.00
  304   37.10    6.87   12.81    0.05    0.10    0.00  102.58    3.54    4.22   19.73    0.31    0.00    0.02    0.00    0.00     0.40    0.00    0.05    0.00
   10  234.50   48.44   94.58    3.10    1.39    0.00  102.58   75.31  163.61  146.33    0.89    0.01    0.14    0.04    0.00     1.28    0.00    0.16    0.00
  305    1.30    0.00    4.48    0.04    0.00    0.00  100.12    3.64    5.51    4.54    0.00    0.00    0.01    0.00    0.00     0.00    0.00    0.00    0.00
  306    3.60    0.00    2.31    0.05    0.00    0.00  100.37    2.18    2.62    2.36    0.00    0.00    0.00    0.00    0.00     0.00    0.00    0.00    0.00
  307    0.00    0.00    0.80    0.05    0.00    0.00   97.75    2.62    6.11    0.85    0.00    0.00    0.00    0.00    0.00     0.00    0.00    0.00    0.00
  308    0.00    0.00    0.27    0.04    0.00    0.00   95.24    2.51    7.62    0.32    0.00    0.00    0.00    0.00    0.00     0.00    0.00    0.00    0.00
  309    0.00    0.00    0.10    0.03    0.00    0.00   93.25    1.99    7.33    0.13    0.00    0.00    0.00    0.00    0.00     0.00    0.00    0.00    0.00
  310    0.00    0.00    0.03    0.03    0.00    0.00   91.53    1.72    7.25    0.07    0.00    0.00    0.00    0.00    0.00     0.00    0.00    0.00    0.00
  311    0.00    0.00    0.01    0.03    0.00    0.00   90.02    1.51    7.05    0.05    0.00    0.00    0.00    0.00    0.00     0.00    0.00    0.00    0.00
  312    3.00    0.00    0.51    0.02    0.00    0.00   89.80    2.45    6.63    0.54    0.00    0.00    0.00    0.00    0.00     0.00    0.00    0.00    0.00
  313    5.30    0.00    1.45    0.03    0.00    0.00   90.82    2.33    5.37    1.48    0.00    0.00    0.00    0.00    0.00     0.00    0.00    0.00    0.00
  314    3.60    0.00    1.26    0.03    0.00    0.00   91.42    1.83    3.14    1.30    0.00    0.00    0.00    0.00    0.00     0.00    0.00    0.00    0.00
  315    3.00    0.00    1.02    0.03    0.00    0.00   91.41    2.12    4.07    1.05    0.00    0.00    0.00    0.00    0.00     0.00    0.00    0.00    0.00
  316    1.30    0.00    0.43    0.03    0.00    0.00   90.58    2.00    3.88    0.46    0.00    0.00    0.00    0.00    0.00     0.00    0.00    0.00    0.00
  317   38.40    6.98   11.93    0.03    0.08    0.00  100.34    3.62    4.37   18.94    0.18    0.00    0.02    0.00    0.00     0.26    0.00    0.03    0.00
  318    0.00    0.00    4.10    0.03    0.00    0.00   98.55    1.79    3.45    4.14    0.00    0.00    0.01    0.00    0.00     0.00    0.00    0.00    0.00
  319    0.00    0.00    1.41    0.03    0.00    0.00   97.94    0.61    1.43    1.45    0.00    0.00    0.00    0.00    0.00     0.00    0.00    0.00    0.00
  320    0.00    0.00    0.49    0.03    0.00    0.00   95.87    2.07    5.47    0.52    0.00    0.00    0.00    0.00    0.00     0.00    0.00    0.00    0.00
  321    0.00    0.00    0.17    0.03    0.00    0.00   94.65    1.22    3.82    0.20    0.00    0.00    0.00    0.00    0.00     0.00    0.00    0.00    0.00
  322    9.40    0.02    2.48    0.03    0.00    0.00   96.79    3.53    5.34    2.53    0.00    0.00    0.00    0.00    0.00     0.00    0.00    0.00    0.00
  323    4.80    0.00    1.98    0.02    0.00    0.00   95.80    4.07    6.50    2.00    0.00    0.00    0.00    0.00    0.00     0.00    0.00    0.00    0.00
  324    8.60    0.02    2.97    0.02    0.01    0.00   98.16    2.71    3.01    3.01    0.00    0.00    0.00    0.00    0.00     0.00    0.00    0.00    0.00
  325    2.30    0.00    1.40    0.02    0.00    0.00   96.44    3.44    4.73    1.42    0.00    0.00    0.00    0.00    0.00     0.00    0.00    0.00    0.00
  326    3.30    0.00    1.16    0.02    0.00    0.00   95.87    2.83    3.88    1.18    0.00    0.00    0.00    0.00    0.00     0.00    0.00    0.00    0.00
  327    0.30    0.00    0.40    0.02    0.00    0.00   94.01    2.16    4.40    0.42    0.00    0.00    0.00    0.00    0.00     0.00    0.00    0.00    0.00
  328   48.30   12.66   15.92    0.02    0.54    0.00  101.35    3.68    4.43   28.61    0.40    0.00    0.04    0.02    0.00     0.57    0.00    0.07    0.00
  329    0.00    0.00    5.48    0.02    0.00    0.00   98.79    2.56    5.11    5.50    0.00    0.00    0.01    0.00    0.00     0.00    0.00    0.00    0.00
  330    0.00    0.00    1.89    0.02    0.00    0.00   96.32    2.47    6.47    1.91    0.00    0.00    0.00    0.00    0.00     0.00    0.00    0.00    0.00
  331    5.30    0.01    1.85    0.02    0.00    0.00   96.41    3.38    6.02    1.88    0.00    0.00    0.00    0.00    0.00     0.00    0.00    0.00    0.00
  332    6.10    0.01    2.15    0.02    0.00    0.00   96.94    3.24    5.12    2.19    0.00    0.00    0.00    0.00    0.00     0.00    0.00    0.00    0.00
  333    0.50    0.00    0.74    0.02    0.00    0.00   94.67    2.77    6.09    0.77    0.00    0.00    0.00    0.00    0.00     0.00    0.00    0.00    0.00
  334   32.50    4.87   11.44    0.02    0.36    0.00  101.60    3.30    3.78   16.33    0.25    0.00    0.02    0.01    0.00     0.32    0.00    0.04    0.00
   11  180.90   24.57   80.64    0.79    1.02    0.00  101.60   76.37  149.99  106.18    0.84    0.00    0.12    0.03    0.00     1.15    0.00    0.14    0.00
  335   10.90    0.06    8.42    0.02    0.24    0.00  101.47    3.88    4.76    8.51    0.00    0.00    0.02    0.01    0.00     0.00    0.00    0.00    0.00
  336    0.30    0.00    2.90    0.02    0.00    0.00  100.50    1.26    2.20    2.93    0.00    0.00    0.01    0.00    0.00     0.00    0.00    0.00    0.00
  337    5.80    0.01    2.44    0.03    0.00    0.00  100.04    4.06    5.42    2.47    0.00    0.00    0.00    0.00    0.00     0.00    0.00    0.00    0.00
  338    2.30    0.00    1.22    0.03    0.00    0.00   98.46    3.31    5.02    1.25    0.00    0.00    0.00    0.00    0.00     0.00    0.00    0.00    0.00
  339    4.30    0.00    1.39    0.03    0.00    0.00   98.12    3.15    4.69    1.43    0.00    0.00    0.00    0.00    0.00     0.00    0.00    0.00    0.00
  340   22.60    1.73    9.13    0.03    0.35    0.00  101.46    3.98    4.92   10.90    0.16    0.00    0.02    0.01    0.00     0.17    0.00    0.02    0.00
  341   14.50    0.31    9.21    0.03    0.35    0.00  102.84    3.20    3.60    9.56    0.00    0.00    0.02    0.01    0.00     0.02    0.00    0.00    0.00
  342    0.50    0.00    3.17    0.03    0.00    0.00  100.51    2.83    4.58    3.21    0.00    0.00    0.01    0.00    0.00     0.00    0.00    0.00    0.00
  343   50.50   15.35   18.28    0.03    1.39    0.00  104.69    3.37    3.87   33.67    1.27    0.00    0.05    0.05    0.00     1.49    0.00    0.18    0.00
  344   21.60    1.89   15.75    0.04    0.71    0.00  105.93    3.34    3.80   17.69    0.00    0.00    0.04    0.03    0.00     0.10    0.00    0.01    0.00
  345   41.10   10.81   20.95    0.04    1.46    0.00  108.77    2.30    2.33   31.81    1.36    0.00    0.05    0.05    0.00     1.36    0.00    0.17    0.00
  346    1.30    0.00    7.29    0.05    0.00    0.00  107.01    2.94    3.53    7.34    0.00    0.00    0.02    0.00    0.00     0.00    0.00    0.00    0.00
  347   17.50    1.02    9.91    0.05    0.57    0.00  108.49    3.13    3.44   10.99    0.07    0.00    0.02    0.02    0.00     0.07    0.00    0.01    0.00
  348    8.40    0.03    6.64    0.06    0.19    0.00  107.81    3.95    4.78    6.73    0.00    0.00    0.01    0.01    0.00     0.00    0.00    0.00    0.00
  349    1.50    0.00    2.43    0.06    0.00    0.00  105.71    3.39    4.93    2.49    0.00    0.00    0.00    0.00    0.00     0.00    0.00    0.00    0.00
  350    1.00    0.00    0.84    0.07    0.00    0.00  103.20    3.51    6.39    0.91    0.00    0.00    0.00    0.00    0.00     0.00    0.00    0.00    0.00
  351    6.60    0.01    1.95    0.07    0.00    0.00  102.80    4.46    7.73    2.03    0.00    0.00    0.00    0.00    0.00     0.00    0.00    0.00    0.00
  352    3.30    0.00    1.35    0.07    0.00    0.00  101.22    3.86    7.43    1.43    0.00    0.00    0.00    0.00    0.00     0.00    0.00    0.00    0.00
  353    0.00    0.00    0.46    0.07    0.00    0.00   98.72    2.49    7.48    0.55    0.00    0.00    0.00    0.00    0.00     0.00    0.00    0.00    0.00
  354    6.40    0.01    1.70    0.08    0.00    0.00   99.48    3.29    6.55    1.79    0.00    0.00    0.00    0.00    0.00     0.00    0.00    0.00    0.00
  355    6.60    0.01    2.25    0.08    0.00    0.00  100.59    2.95    4.79    2.34    0.00    0.00    0.00    0.00    0.00     0.00    0.00    0.00    0.00
  356    0.00    0.00    0.77    0.08    0.00    0.00   98.68    1.91    5.03    0.86    0.00    0.00    0.00    0.00    0.00     0.00    0.00    0.00    0.00
  357    3.30    0.00    0.88    0.08    0.00    0.00   98.82    2.22    3.55    0.97    0.00    0.00    0.00    0.00    0.00     0.00    0.00    0.00    0.00
  358   16.30    0.53    5.34    0.09    0.02    0.00  103.34    3.55    4.25    5.96    0.01    0.00    0.00    0.00    0.00     0.02    0.00    0.00    0.00
  359    3.30    0.00    2.51    0.09    0.00    0.00  102.71    2.90    3.52    2.61    0.00    0.00    0.00    0.00    0.00     0.00    0.00    0.00    0.00
  360    2.00    0.00    1.15    0.09    0.00    0.00  101.63    2.65    3.43    1.25    0.00    0.00    0.00    0.00    0.00     0.00    0.00    0.00    0.00
  361    1.00    0.00    0.40    0.09    0.00    0.00   99.85    2.78    4.38    0.49    0.00    0.00    0.00    0.00    0.00     0.00    0.00    0.00    0.00
  362    0.00    0.00    0.14    0.09    0.00    0.00   97.79    2.06    5.34    0.23    0.00    0.00    0.00    0.00    0.00     0.00    0.00    0.00    0.00
  363    7.10    0.01    1.80    0.09    0.00    0.00   98.72    3.50    5.82    1.90    0.00    0.00    0.00    0.00    0.00     0.00    0.00    0.00    0.00
  364    1.00    0.00    0.62    0.09    0.00    0.00   97.46    2.26    3.69    0.71    0.00    0.00    0.00    0.00    0.00     0.00    0.00    0.00    0.00
  365   48.80   13.83   14.99    0.09    0.37    0.00  105.69    3.84    4.62   28.91    1.58    0.00    0.02    0.01    0.00     1.61    0.00    0.20    0.00
   12  309.80   45.61  156.28    1.87    5.65    0.00  105.69   96.31  145.86  203.93    4.44    0.00    0.28    0.20    0.00     4.84    0.00    0.60    0.00

 2013 3096.30  605.27 1513.38   35.75   51.65    0.00  105.69  917.59 1499.68 2157.53   22.20    0.31    2.44    1.85   11.87    38.47    0.04    4.73    0.00
1
    SWAT Dec 23 2016    VER 2016/Rev 664                                            

    General Input/Output section (file.cio):                                        
    2/12/2020 14:35:46 QSWAT Workflow v1.5.2                                        
                                                                                    
Annual Summary for Watershed in year    5 of simulation

UNIT                                    PERCO    TILE                           WATER     SED     NO3     NO3     NO3     NO3        N       P       P
TIME     PREC    SURQ    LATQ     GWQ    LATE       Q     SW       ET     PET   YIELD   YIELD    SURQ    LATQ    PERC    CROP  ORGANIC SOLUBLE ORGANIC TILENO3
         (mm)    (mm)    (mm)    (mm)    (mm)    (mm)    (mm)    (mm)    (mm)    (mm)   (t/ha)  ------------------(kg nutrient/ha)-------------------- (kg/ha)
    1   88.40   44.78   27.95    0.09    2.29    0.00  110.07    2.19    2.21   72.82    3.97    0.00    0.06    0.09    0.00    11.30    0.00    1.39    0.00
    2   60.50   24.50   29.06    0.10    2.18    0.00  111.77    2.46    2.49   53.67    0.00    0.00    0.06    0.08    0.00     5.38    0.00    0.66    0.00
    3   51.10   18.32   28.01    0.11    2.21    0.00  111.35    3.52    4.03   46.44    2.17    0.00    0.06    0.07    0.00     3.52    0.00    0.43    0.00
    4   32.50    7.06   22.86    0.12    1.58    0.00  111.34    3.71    4.33   30.04    0.00    0.00    0.05    0.05    0.00     0.67    0.00    0.08    0.00
    5    3.60    0.00    8.63    0.12    0.00    0.00  110.47    3.30    4.01    8.77    0.00    0.00    0.02    0.00    0.00     0.00    0.00    0.00    0.00
    6   38.60   10.24   17.40    0.13    1.63    0.00  112.81    2.40    2.42   27.78    1.06    0.00    0.03    0.05    0.00     1.64    0.00    0.20    0.00
    7   32.30    7.14   19.61    0.14    1.77    0.00  112.79    2.64    2.66   26.89    0.00    0.00    0.04    0.06    0.00     1.07    0.00    0.13    0.00
    8   29.50    5.76   19.42    0.15    1.59    0.00  112.73    2.89    2.99   25.34    0.47    0.00    0.04    0.05    0.00     0.73    0.00    0.09    0.00
    9   29.20    5.61   19.17    0.16    1.53    0.00  112.98    2.76    2.79   24.95    0.05    0.00    0.03    0.05    0.00     0.77    0.00    0.10    0.00
   10    2.50    0.00    7.04    0.17    0.00    0.00  111.65    3.17    3.70    7.22    0.00    0.00    0.01    0.00    0.00     0.00    0.00    0.00    0.00
   11    1.30    0.00    2.50    0.18    0.00    0.00  109.93    2.90    3.85    2.69    0.00    0.00    0.00    0.00    0.00     0.00    0.00    0.00    0.00
   12    0.50    0.00    0.87    0.19    0.00    0.00  108.08    2.35    4.20    1.06    0.00    0.00    0.00    0.00    0.00     0.00    0.00    0.00    0.00
   13    0.50    0.00    0.30    0.19    0.00    0.00  106.29    2.29    4.87    0.50    0.00    0.00    0.00    0.00    0.00     0.00    0.00    0.00    0.00
   14    7.10    0.02    1.88    0.20    0.00    0.00  106.94    3.73    6.05    2.10    0.00    0.00    0.00    0.00    0.00     0.00    0.00    0.00    0.00
   15    0.00    0.00    0.65    0.20    0.00    0.00  104.35    2.59    6.64    0.86    0.00    0.00    0.00    0.00    0.00     0.00    0.00    0.00    0.00
   16   45.50   13.32   13.69    0.21    0.72    0.00  110.91    4.36    5.37   27.23    2.20    0.00    0.01    0.02    0.00     2.86    0.00    0.35    0.00
   17    0.50    0.00    4.71    0.21    0.00    0.00  108.85    2.56    4.28    4.93    0.00    0.00    0.00    0.00    0.00     0.00    0.00    0.00    0.00
   18    0.00    0.00    1.62    0.22    0.00    0.00  106.85    2.00    4.81    1.85    0.00    0.00    0.00    0.00    0.00     0.00    0.00    0.00    0.00
   19    2.80    0.00    1.02    0.22    0.00    0.00  106.01    2.94    5.15    1.25    0.00    0.00    0.00    0.00    0.00     0.00    0.00    0.00    0.00
   20    8.10    0.02    2.46    0.22    0.00    0.00  107.35    3.53    5.20    2.71    0.00    0.00    0.00    0.00    0.00     0.00    0.00    0.00    0.00
   21    1.00    0.00    0.85    0.23    0.00    0.00  105.21    3.14    5.50    1.08    0.00    0.00    0.00    0.00    0.00     0.00    0.00    0.00    0.00
   22    5.30    0.00    1.56    0.23    0.00    0.00  104.78    3.79    6.58    1.80    0.00    0.00    0.00    0.00    0.00     0.00    0.00    0.00    0.00
   23    1.30    0.00    0.62    0.23    0.00    0.00  102.51    3.45    7.09    0.85    0.00    0.00    0.00    0.00    0.00     0.00    0.00    0.00    0.00
   24   11.20    0.09    3.23    0.23    0.00    0.00  105.03    3.99    5.79    3.56    0.00    0.00    0.00    0.00    0.00     0.01    0.00    0.00    0.00
   25   44.40   12.75   15.31    0.23    0.69    0.00  111.14    3.19    3.49   28.30    0.99    0.00    0.02    0.02    0.00     1.49    0.00    0.18    0.00
   26   33.80    7.69   18.61    0.23    1.35    0.00  112.26    3.29    3.64   26.54    0.18    0.00    0.03    0.05    0.00     1.41    0.00    0.17    0.00
   27    5.60    0.01    7.99    0.24    0.03    0.00  110.82    4.58    5.73    8.25    0.00    0.00    0.01    0.00    0.00     0.00    0.00    0.00    0.00
   28    0.50    0.00    2.75    0.24    0.00    0.00  108.33    2.98    5.31    3.00    0.00    0.00    0.00    0.00    0.00     0.00    0.00    0.00    0.00
   29    0.80    0.00    0.95    0.24    0.00    0.00  106.25    2.88    5.71    1.20    0.00    0.00    0.00    0.00    0.00     0.00    0.00    0.00    0.00
   30    4.80    0.00    1.43    0.24    0.00    0.00  105.95    3.42    6.09    1.68    0.00    0.00    0.00    0.00    0.00     0.00    0.00    0.00    0.00
   31    6.40    0.01    2.10    0.24    0.00    0.00  106.31    3.59    5.79    2.35    0.00    0.00    0.00    0.00    0.00     0.00    0.00    0.00    0.00
    1  549.60  157.32  284.25    5.90   17.57    0.00  106.31   96.60  142.78  447.70   11.11    0.01    0.48    0.60    0.00    30.85    0.01    3.79    0.00
   32    1.00    0.00    0.72    0.24    0.00    0.00  104.37    2.94    5.40    0.97    0.00    0.00    0.00    0.00    0.00     0.00    0.00    0.00    0.00
   33    3.00    0.00    0.83    0.24    0.00    0.00  103.02    3.46    7.01    1.08    0.00    0.00    0.00    0.00    0.00     0.00    0.00    0.00    0.00
   34    0.50    0.00    0.29    0.24    0.00    0.00  101.08    2.44    6.30    0.53    0.00    0.00    0.00    0.00    0.00     0.00    0.00    0.00    0.00
   35    0.00    0.00    0.10    0.24    0.00    0.00   99.30    1.77    6.38    0.35    0.00    0.00    0.00    0.00    0.00     0.00    0.00    0.00    0.00
   36    0.00    0.00    0.03    0.24    0.00    0.00   97.79    1.51    6.33    0.28    0.00    0.00    0.00    0.00    0.00     0.00    0.00    0.00    0.00
   37    0.00    0.00    0.01    0.23    0.00    0.00   96.82    0.97    4.47    0.26    0.00    0.00    0.00    0.00    0.00     0.00    0.00    0.00    0.00
   38    0.00    0.00    0.00    0.23    0.00    0.00   95.25    1.57    5.43    0.25    0.00    0.00    0.00    0.00    0.02     0.00    0.00    0.00    0.00
   39   25.10    2.45    6.52    0.23    0.01    0.00  102.85    5.09    6.63    9.22    0.36    0.00    0.00    0.00    0.38     0.42    0.00    0.05    0.00
   40   26.40    3.48   11.45    0.23    0.09    0.00  106.81    4.83    5.90   15.17    0.00    0.05    0.02    0.00    0.43     0.41    0.00    0.05    0.00
   41    0.00    0.00    3.94    0.23    0.00    0.00  103.62    3.19    6.18    4.17    0.00    0.00    0.01    0.00    0.47     0.00    0.00    0.00    0.00
   42    0.00    0.00    1.36    0.22    0.00    0.00  100.85    2.77    6.18    1.59    0.00    0.00    0.00    0.00    0.52     0.00    0.00    0.00    0.00
   43    3.00    0.00    0.98    0.22    0.00    0.00   99.27    3.80    6.51    1.21    0.00    0.00    0.01    0.00    0.62     0.00    0.00    0.00    0.00
   44    2.00    0.00    0.61    0.22    0.00    0.00   97.16    3.70    5.88    0.84    0.00    0.00    0.01    0.00    0.68     0.00    0.00    0.00    0.00
   45   25.90    2.81    7.47    0.22    0.03    0.00  104.63    4.51    4.65   10.51    0.06    0.04    0.01    0.00    0.71     0.11    0.00    0.01    0.00
   46   17.30    0.91    9.11    0.21    0.16    0.00  106.81    4.07    4.10   10.24    0.00    0.01    0.03    0.00    0.58     0.01    0.00    0.00    0.00
   47    2.30    0.00    3.49    0.21    0.00    0.00  103.23    5.34    6.39    3.71    0.00    0.00    0.01    0.00    0.50     0.00    0.00    0.00    0.00
   48    4.10    0.00    2.09    0.21    0.00    0.00  102.82    3.15    3.33    2.31    0.00    0.00    0.01    0.00    0.48     0.00    0.00    0.00    0.00
   49   13.50    0.28    4.86    0.20    0.04    0.00  105.94    3.74    3.75    5.35    0.00    0.00    0.01    0.00    0.49     0.00    0.00    0.00    0.00
   50    2.00    0.00    1.98    0.20    0.00    0.00  103.08    4.40    4.69    2.19    0.00    0.00    0.01    0.00    0.34     0.00    0.00    0.00    0.00
   51   30.00    4.88   11.23    0.20    0.54    0.00  107.52    4.06    4.06   16.31    0.02    0.00    0.02    0.01    0.48     0.02    0.00    0.00    0.00
   52   51.60   17.69   20.94    0.20    1.51    0.00  109.79    4.08    4.08   38.84    0.03    0.00    0.04    0.03    0.29     0.07    0.00    0.01    0.00
   53    0.30    0.00    7.21    0.20    0.00    0.00  107.00    3.09    3.68    7.42    0.00    0.00    0.02    0.00    0.27     0.00    0.00    0.00    0.00
   54    0.80    0.00    2.48    0.20    0.00    0.00  103.95    3.85    4.65    2.69    0.00    0.00    0.01    0.00    0.15     0.00    0.00    0.00    0.00
   55   30.70    5.34   10.64    0.20    0.49    0.00  109.07    4.82    4.86   16.19    0.02    0.00    0.01    0.01    0.13     0.03    0.00    0.00    0.00
   56   30.50    5.80   15.38    0.20    1.07    0.00  109.97    4.87    5.04   21.38    0.01    0.00    0.02    0.02    0.15     0.04    0.00    0.00    0.00
   57   45.50   14.31   21.01    0.20    1.75    0.00  112.09    3.36    3.36   35.52    0.06    0.00    0.02    0.04    0.16     0.09    0.00    0.01    0.00
   58   35.80    8.91   21.36    0.20    1.78    0.00  110.92    4.73    4.86   30.49    0.00    0.00    0.02    0.03    0.05     0.03    0.00    0.00    0.00
   59    0.30    0.00    7.35    0.21    0.00    0.00  108.16    3.06    4.04    7.57    0.00    0.00    0.01    0.00    0.05     0.00    0.00    0.00    0.00
    2  351.60   66.87  173.45    6.04    7.48    0.00  108.16   99.17  144.15  246.63    0.58    0.11    0.29    0.16    7.94     1.23    0.00    0.15    0.00
   60    5.10    0.01    3.73    0.21    0.00    0.00  106.54    4.89    5.69    3.95    0.00    0.00    0.00    0.00    0.05     0.00    0.00    0.00    0.00
   61    6.60    0.01    2.92    0.21    0.00    0.00  106.42    4.21    4.70    3.15    0.00    0.00    0.00    0.00    0.07     0.00    0.00    0.00    0.00
   62    8.60    0.04    3.27    0.21    0.01    0.00  106.09    5.43    5.88    3.53    0.00    0.00    0.00    0.00    0.07     0.00    0.00    0.00    0.00
   63    3.60    0.00    1.86    0.21    0.00    0.00  104.12    4.45    4.95    2.09    0.00    0.00    0.00    0.00    0.15     0.00    0.00    0.00    0.00
   64    0.00    0.00    0.64    0.21    0.00    0.00  100.43    3.68    5.49    0.87    0.00    0.00    0.00    0.00    0.11     0.00    0.00    0.00    0.00
   65   47.20   13.53   13.04    0.21    0.43    0.00  109.33    4.79    4.80   26.79    0.04    0.00    0.00    0.01    0.18     0.04    0.00    0.00    0.00
   66    1.00    0.00    4.48    0.21    0.00    0.00  107.21    3.12    3.38    4.71    0.00    0.00    0.00    0.00    0.12     0.00    0.00    0.00    0.00
   67    7.60    0.02    3.54    0.21    0.00    0.00  106.90    4.84    5.03    3.79    0.00    0.00    0.00    0.00    0.07     0.00    0.00    0.00    0.00
   68    4.30    0.01    2.17    0.21    0.00    0.00  104.76    4.98    5.40    2.40    0.00    0.00    0.00    0.00    0.09     0.00    0.00    0.00    0.00
   69    2.00    0.00    1.00    0.21    0.00    0.00  102.39    3.99    4.36    1.23    0.00    0.00    0.00    0.00    0.16     0.00    0.00    0.00    0.00
   70    0.00    0.00    0.35    0.21    0.00    0.00   98.96    3.43    4.92    0.57    0.00    0.00    0.00    0.00    0.11     0.00    0.00    0.00    0.00
   71    0.50    0.00    0.12    0.21    0.00    0.00   96.21    3.25    4.54    0.34    0.00    0.00    0.00    0.00    0.13     0.00    0.00    0.00    0.00
   72   52.30   15.82   13.19    0.21    0.37    0.00  107.73    4.55    4.55   29.22    0.04    0.00    0.00    0.01    0.14     0.04    0.00    0.01    0.00
   73   30.00    5.39   15.73    0.21    0.92    0.00  109.98    4.36    4.36   21.34    0.00    0.00    0.00    0.02    0.13     0.02    0.00    0.00    0.00
   74    3.00    0.00    5.97    0.21    0.00    0.00  107.96    4.16    4.40    6.20    0.00    0.00    0.00    0.00    0.08     0.00    0.00    0.00    0.00
   75    1.00    0.00    2.06    0.21    0.00    0.00  103.37    5.59    7.33    2.28    0.00    0.00    0.00    0.00    0.04     0.00    0.00    0.00    0.00
   76    6.40    0.01    2.28    0.21    0.00    0.00  101.51    5.85    7.65    2.52    0.00    0.00    0.00    0.00    0.12     0.00    0.00    0.00    0.00
   77    0.30    0.00    0.79    0.21    0.00    0.00   97.94    3.87    6.13    1.00    0.00    0.00    0.00    0.00    0.12     0.00    0.00    0.00    0.00
   78    0.30    0.00    0.27    0.21    0.00    0.00   94.84    3.40    5.24    0.49    0.00    0.00    0.00    0.00    0.11     0.00    0.00    0.00    0.00
   79    4.80    0.00    1.18    0.20    0.00    0.00   93.50    4.47    5.40    1.40    0.00    0.00    0.00    0.00    0.11     0.00    0.00    0.00    0.00
   80    0.00    0.00    0.41    0.20    0.00    0.00   89.87    3.63    5.73    0.62    0.00    0.00    0.00    0.00    0.12     0.00    0.00    0.00    0.00
   81    0.00    0.00    0.14    0.20    0.00    0.00   86.40    3.47    5.73    0.35    0.00    0.00    0.00    0.00    0.12     0.00    0.00    0.00    0.00
   82   10.20    0.02    2.71    0.19    0.00    0.00   87.71    4.81    6.16    2.93    0.00    0.00    0.00    0.00    0.11     0.00    0.00    0.00    0.00
   83   19.10    0.66    6.11    0.18    0.00    0.00   93.32    4.94    5.80    6.96    0.00    0.00    0.00    0.00    0.10     0.00    0.00    0.00    0.00
   84    0.00    0.00    2.10    0.18    0.00    0.00   89.75    3.56    5.35    2.29    0.00    0.00    0.00    0.00    0.10     0.00    0.00    0.00    0.00
   85    0.00    0.00    0.72    0.18    0.00    0.00   85.73    4.02    6.27    0.91    0.00    0.00    0.00    0.00    0.09     0.00    0.00    0.00    0.00
   86    0.00    0.00    0.25    0.17    0.00    0.00   81.69    4.04    6.91    0.43    0.00    0.00    0.00    0.00    0.10     0.00    0.00    0.00    0.00
   87    8.60    0.01    2.27    0.17    0.00    0.00   82.47    4.48    5.23    2.46    0.00    0.00    0.00    0.00    0.09     0.00    0.00    0.00    0.00
   88    0.30    0.00    0.78    0.16    0.00    0.00   79.91    2.87    4.30    0.95    0.00    0.00    0.00    0.00    0.09     0.00    0.00    0.00    0.00
   89    0.00    0.00    0.27    0.15    0.00    0.00   76.24    3.66    5.68    0.43    0.00    0.00    0.00    0.00    0.07     0.00    0.00    0.00    0.00
   90    0.00    0.00    0.09    0.14    0.00    0.00   72.68    3.56    5.83    0.24    0.00    0.00    0.00    0.00    0.09     0.00    0.00    0.00    0.00
    3  222.80   35.54   94.45    6.16    1.75    0.00   72.68  130.37  167.20  136.47    0.09    0.00    0.02    0.05    3.22     0.10    0.00    0.01    0.00
   91   43.70    6.53   11.99    0.13    0.02    0.00   89.15    2.45    2.45   18.66    0.01    0.01    0.00    0.00    0.09     0.01    0.00    0.00    0.00
[...]
  HRU      30 SUB   6 FRSE  Yld =  2606.1 BIOM =   3723.1
  HRU      31 SUB   6 FRSE  Yld =  5443.1 BIOM =   7775.9
  HRU      32 SUB   6 FRSD  Yld =  3270.5 BIOM =   9586.6
  HRU      33 SUB   6 FRSD  Yld =  4021.9 BIOM =  11103.4
  HRU      34 SUB   6 AGRL  Yld =  5963.6 BIOM =  17161.0
  HRU      35 SUB   7 AGRL  Yld =  5880.7 BIOM =  16923.8
  HRU      36 SUB   7 AGRL  Yld =  5487.4 BIOM =  15907.5
  HRU      37 SUB   7 AGRL  Yld =  5871.8 BIOM =  16898.5
  HRU      38 SUB   7 AGRL  Yld =  5548.6 BIOM =  16029.3
  HRU      39 SUB   7 AGRL  Yld =  5932.1 BIOM =  17070.9
  HRU      40 SUB   7 SWCH  Yld = 20903.7 BIOM =  35331.9
  HRU      41 SUB   7 FRSE  Yld =  5908.5 BIOM =   8440.8
  HRU      42 SUB   7 FRSE  Yld =  5439.9 BIOM =   7771.2
  HRU      43 SUB   7 FRSD  Yld =  3950.3 BIOM =  10966.9
  HRU      44 SUB   7 FRSD  Yld =  3264.9 BIOM =   9576.2
  HRU      45 SUB   7 BARR  Yld =     0.0 BIOM =      0.9
  HRU      46 SUB   8 BARR  Yld =     0.0 BIOM =      1.0
  HRU      47 SUB   8 BARR  Yld =     0.0 BIOM =      1.0
  HRU      48 SUB   8 AGRL  Yld =  5834.6 BIOM =  16792.2
  HRU      49 SUB   8 AGRL  Yld =  5452.1 BIOM =  15815.4
  HRU      50 SUB   8 SWCH  Yld = 25601.1 BIOM =  42998.0
  HRU      51 SUB   8 SWCH  Yld = 20908.4 BIOM =  35339.1
  HRU      52 SUB   8 FRSE  Yld =  4231.8 BIOM =   6045.4
  HRU      53 SUB   8 FRSE  Yld =  4241.6 BIOM =   6059.4
  HRU      54 SUB   8 FRSE  Yld =  5904.5 BIOM =   8434.9
  HRU      55 SUB   8 FRSE  Yld =  5446.2 BIOM =   7780.3
  HRU      56 SUB   8 BARR  Yld =     0.0 BIOM =      1.0
  HRU      57 SUB   9 SWCH  Yld = 20908.0 BIOM =  35338.6
  HRU      58 SUB   9 FRSE  Yld =  5810.9 BIOM =   8301.3
  HRU      59 SUB   9 FRSE  Yld =  5446.6 BIOM =   7780.8
  HRU      60 SUB   9 FRSE  Yld =    52.8 BIOM =     75.4
  HRU      61 SUB   9 FRSE  Yld =  5568.6 BIOM =   7955.2
  HRU      62 SUB   9 FRSE  Yld =    52.8 BIOM =     75.4
  HRU      63 SUB   9 FRSE  Yld =  5908.5 BIOM =   8440.8
  HRU      64 SUB   9 FRSE  Yld =    52.8 BIOM =     75.4

    HRU STATISTICS

                AVE ANNUAL VALUES

   HRU  SUB  SOIL       AREAkm2    CN     AWCmm   USLE_LS  IRRmm  AUTONkh AUTOPkh  MIXEF PRECmm SURQGENmm   GWQmm    ETmm   SEDth  NO3kgh  ORGNkgh BIOMth   YLDth  SURQmm
      1   1   AUA        .686E-01   55.00  165.80    7.70    0.00    0.00    0.00    0.20 3485.48  479.21 1921.76 1031.38    5.50    2.59   26.35   13.01    9.11  479.21
      2   1   FAGASA     .205E-03   70.00   97.20    0.11    0.00    0.00    0.00    0.20 3485.48  999.12 1309.84 1042.93    0.17    0.03    2.88    5.87    4.11  997.89
      3   1   FAGASA     .172E+00   70.00   97.20   13.20    0.00    0.00    0.00    0.20 3485.48  862.55 1650.38  953.89   35.11    2.25   51.84   12.16    8.51  862.55
      4   1   AUA        .154E-02   77.00  165.80    8.99    0.00  187.23    0.00    0.20 3485.48 1282.70 1190.91  976.59   45.74   33.60   65.83   25.74    8.94 1282.70
      5   1   FAGASA     .185E-02   83.00   97.20   11.02    0.00  206.88    0.00    0.20 3485.48 1355.29 1224.88  901.43   84.11   42.54   73.00   24.55    8.49 1355.29
      6   2   AUA        .308E-03   59.00  165.80    2.45    0.00  132.53    0.00    0.20 3485.48  600.22 1666.57 1108.66    0.05    6.22    0.45   59.92   38.91  600.22
      7   2   AUA        .103E-03   55.00  165.80    0.17    0.00    0.00    0.00    0.20 3485.48  515.16 1726.32 1084.50    0.02    0.02    0.34    9.42    6.59  514.89
      8   2   AUA        .274E-01   55.00  165.80    8.57    0.00    0.00    0.00    0.20 3485.48  476.45 1929.25 1028.16    5.48    2.68   26.33   13.01    9.11  476.45
      9   2   FAGASA     .992E-01   70.00   97.20   13.25    0.00    0.00    0.00    0.20 3485.48  862.55 1650.39  953.89   33.02    2.26   51.36   12.16    8.51  862.55
     10   2   FAGASA     .236E-02   77.00   97.20   21.18    0.00    0.00    0.00    0.20 3485.48 1075.23 1439.26  963.16    8.98    1.78   40.51   14.74   10.32 1075.23
     11   2   AUA        .718E-03   77.00  165.80    3.82    0.00    0.00    0.00    0.20 3485.48 1318.13 1061.74 1058.20    0.69    1.76    7.02   18.68   13.08 1318.13
     12   2   FAGASA     .380E-02   77.00   97.20   13.93    0.00    0.00    0.00    0.20 3485.48 1075.22 1438.82  963.15    6.23    1.79   33.35   14.76   10.33 1075.22
     13   2   FAGASA     .923E-03   77.00   97.20   12.30    0.00    0.00    0.00    0.20 3485.48 1075.22 1438.72  963.14    4.63    1.80   28.25   14.77   10.34 1075.22
     14   3   AUA        .358E-01   55.00  165.80    7.26    0.00    0.00    0.00    0.20 3485.48  480.64 1917.88 1033.02    4.80    2.54   25.14   13.01    9.10  480.64
     15   3   FAGASA     .915E-01   70.00   97.20   10.67    0.00    0.00    0.00    0.20 3485.48  862.57 1649.76  953.87   26.33    2.25   49.41   12.16    8.52  862.57
     16   4   AUA        .156E-01   55.00  165.80    8.57    0.00    0.00    0.00    0.20 3485.48  476.37 1929.41 1028.13    5.12    2.69   25.73   13.01    9.11  476.37
     17   4   FAGASA     .826E-01   70.00   97.20   18.63    0.00    0.00    0.00    0.20 3485.48  862.59 1651.45  953.84   45.50    2.26   53.51   12.15    8.50  862.59
     18   4   FAGASA     .205E-03   91.00   97.20   21.18    0.00    0.00    0.00    0.20 3485.48 1902.60  769.61  810.50  560.16    2.11   55.21    0.00    0.00 1902.60
     19   4   FAGASA     .910E-01   77.00   97.20   19.83    0.00    0.00    0.00    0.20 3485.48 1075.15 1439.26  963.18   13.05    1.77   48.11   14.71   10.30 1075.15
     20   4   AUA        .103E-03   77.00  165.80    1.82    0.00  179.04    0.00    0.20 3485.48 1356.89 1017.28 1013.55    6.89   16.70   46.17   26.26    9.13 1356.89
     21   5   FAGASA     .205E-03   72.00   97.20   17.22    0.00  132.83    0.00    0.20 3485.48  714.40 1765.72  996.24    0.74   15.17    5.27   49.68   32.09  714.40
     22   5   AUA        .234E-01   55.00  165.80   10.46    0.00    0.00    0.00    0.20 3485.48  468.65 1947.19 1021.04    6.52    2.85   27.90   13.01    9.11  468.65
     23   5   FAGASA     .103E-03   70.00   97.20    0.07    0.00    0.00    0.00    0.20 3485.48  999.19 1309.54 1042.97    0.02    0.02    0.43    5.87    4.11  995.17
     24   5   FAGASA     .513E-03   70.00   97.20    0.35    0.00    0.00    0.00    0.20 3485.48  998.67 1311.80 1042.60    0.93    0.06   12.26    5.85    4.10  998.39
     25   5   FAGASA     .210E+00   70.00   97.20    7.34    0.00    0.00    0.00    0.20 3485.48  902.70 1576.01  969.01   21.18    2.09   47.74   11.76    8.23  902.70
     26   5   FAGASA     .410E-03   91.00   97.20   17.24    0.00    0.00    0.00    0.20 3485.48 1902.48  769.71  810.52  495.32    2.12   55.21    0.00    0.00 1902.48
     27   5   FAGASA     .209E-01   77.00   97.20   15.28    0.00    0.00    0.00    0.20 3485.48 1075.20 1438.92  963.16    8.41    1.78   39.20   14.74   10.32 1075.20
     28   6   AUA        .410E-03   55.00  165.80    0.35    0.00    0.00    0.00    0.20 3485.48  514.93 1727.51 1084.33    0.17    0.04    2.25    9.43    6.60  514.83
     29   6   AUA        .588E-01   55.00  165.80    5.80    0.00    0.00    0.00    0.20 3485.48  485.67 1902.40 1038.95    4.09    2.30   23.76   12.94    9.06  485.67
     30   6   FAGASA     .103E-03   70.00   97.20    0.44    0.00    0.00    0.00    0.20 3485.48  998.61 1312.16 1042.56    0.94    0.07   12.30    5.86    4.10  998.38
     31   6   FAGASA     .924E-01   70.00   97.20   10.86    0.00    0.00    0.00    0.20 3485.48  862.55 1649.87  953.89   26.82    2.26   49.58   12.17    8.52  862.55
     32   6   FAGASA     .123E-02   77.00   97.20   17.38    0.00    0.00    0.00    0.20 3485.48 1075.23 1439.03  963.15    6.80    1.79   34.97   14.75   10.33 1075.23
     33   6   AUA        .103E-03   77.00  165.80    3.96    0.00    0.00    0.00    0.20 3485.48 1339.66 1009.48 1075.31    0.58    1.28    6.14   17.78   12.45 1339.66
     34   6   AUA        .103E-03   77.00  165.80    2.69    0.00  179.70    0.00    0.20 3485.48 1359.61 1002.96 1015.55   10.05   13.30   53.37   26.24    9.12 1359.56
     35   7   AUA        .205E-03   77.00  165.80    3.44    0.00  180.98    0.00    0.20 3485.48 1330.60 1105.79  996.12   14.11   29.61   57.01   25.89    9.00 1330.60
     36   7   FAGASA     .482E-02   77.00   97.20   11.64    0.00  212.17    0.00    0.20 3485.48 1132.61 1422.31  919.31   83.67   41.18   74.46   24.68    8.54 1132.61
     37   7   AUA        .616E-03   77.00  165.80    4.10    0.00  181.51    0.00    0.20 3485.48 1326.21 1115.17  993.57   19.19   30.00   60.53   25.85    8.98 1326.21
     38   7   FAGASA     .123E-02   77.00   97.20    6.52    0.00  212.22    0.00    0.20 3485.48 1212.34 1301.78  939.54   42.16   42.19   71.33   24.79    8.59 1212.34
     39   7   AUA        .790E-02   77.00  165.80    2.75    0.00  179.86    0.00    0.20 3485.48 1352.02 1042.05 1010.09   17.76   19.99   61.19   26.11    9.07 1352.02
     40   7   FAGASA     .308E-03   72.00   97.20   21.18    0.00  132.84    0.00    0.20 3485.48  714.37 1766.00  996.26    0.98   15.17    6.77   49.68   32.09  714.37
     41   7   AUA        .336E-01   55.00  165.80    9.47    0.00    0.00    0.00    0.20 3485.48  473.23 1937.29 1024.70    6.19    2.77   27.42   13.01    9.11  473.23
     42   7   FAGASA     .686E-01   70.00   97.20   14.72    0.00    0.00    0.00    0.20 3485.48  862.55 1650.69  953.90   35.12    2.26   51.84   12.16    8.51  862.55
     43   7   AUA        .205E-03   66.00  165.80    3.09    0.00    0.00    0.00    0.20 3485.48  844.36 1514.33 1067.42    0.30    1.75    3.50   17.49   12.24  844.36
     44   7   FAGASA     .135E-01   77.00   97.20   21.18    0.00    0.00    0.00    0.20 3485.48 1075.24 1439.24  963.17   11.09    1.78   44.82   14.72   10.31 1075.24
     45   7   FAGASA     .410E-03   91.00   97.20    7.57    0.00    0.00    0.00    0.20 3485.48 1976.54  684.19  822.04  224.68    2.00   55.28    0.00    0.00 1976.54
     46   8   AUA        .441E-02   91.00  165.80    2.71    0.00    0.00    0.00    0.20 3485.48 2284.16  202.88  960.01   87.63    1.40   51.45    0.00    0.00 2284.16
     47   8   AUA        .616E-03   91.00  165.80    3.23    0.00    0.00    0.00    0.20 3485.48 2227.01  343.86  909.77   81.26    1.63   51.53    0.00    0.00 2227.01
     48   8   AUA        .154E-02   77.00  165.80   11.66    0.00  190.10    0.00    0.20 3485.48 1238.81 1261.69  964.09   57.57   34.48   67.42   25.67    8.92 1238.81
     49   8   FAGASA     .133E-02   83.00   97.20   11.37    0.00  206.93    0.00    0.20 3485.48 1355.55 1224.64  901.41   83.46   42.62   72.98   24.51    8.47 1355.55
     50   8   AUA        .923E-03   59.00  165.80    2.44    0.00  133.77    0.00    0.20 3485.48  604.38 1646.74 1109.97    0.07    4.88    0.75   60.13   39.05  604.38
     51   8   FAGASA     .103E-03   72.00   97.20   12.43    0.00  132.74    0.00    0.20 3485.48  714.34 1765.37  996.26    0.43   15.18    3.24   49.70   32.10  714.34
     52   8   AUA        .103E-03   55.00  165.80    0.07    0.00    0.00    0.00    0.20 3485.48  515.29 1725.65 1084.64    0.00    0.01    0.00    9.41    6.59  513.92
     53   8   AUA        .513E-03   55.00  165.80    0.33    0.00    0.00    0.00    0.20 3485.48  514.95 1727.37 1084.37    0.16    0.04    2.21    9.43    6.60  514.85
     54   8   AUA        .686E-01   55.00  165.80    6.98    0.00    0.00    0.00    0.20 3485.48  481.70 1915.02 1034.16    4.99    2.49   25.48   13.00    9.10  481.70
     55   8   FAGASA     .118E-01   70.00   97.20   10.38    0.00    0.00    0.00    0.20 3485.48  862.53 1649.59  953.92   20.03    2.26   46.83   12.17    8.52  862.53
     56   8   AUA        .103E-03   86.00  165.80    2.68    0.00    0.00    0.00    0.20 3485.48 1909.03  519.30 1002.29   47.33    1.32   52.74    0.00    0.00 1909.03
     57   9   FAGASA     .513E-03   72.00   97.20   10.51    0.00  132.75    0.00    0.20 3485.48  714.34 1765.15  996.27    0.51   15.18    3.91   49.70   32.10  714.34
     58   9   AUA        .188E-01   55.00  165.80    4.10    0.00    0.00    0.00    0.20 3485.48  492.20 1880.87 1046.77    2.56    2.08   19.48   12.78    8.95  492.20
     59   9   FAGASA     .126E-01   70.00   97.20   10.91    0.00    0.00    0.00    0.20 3485.48  862.52 1649.89  953.92   21.23    2.27   47.38   12.17    8.52  862.52
     60   9   URBAN LA   .185E-02   77.00    1.50    1.31    0.00    0.00    0.00    0.20 3485.48 2296.14    0.00 1170.76    0.00    0.02    0.00    0.11    0.08 2296.07
     61   9   AUA        .923E-03   77.00  165.80    2.07    0.00    0.00    0.00    0.20 3485.48 1352.25  969.56 1073.38    3.15    0.64   25.60   12.31    8.62 1352.25
     62   9   URBAN LA   .205E-03   77.00    1.50    1.98    0.00    0.00    0.00    0.20 3485.48 2296.12    0.00 1170.75    0.00    0.02    0.00    0.11    0.08 2296.12
     63   9   AUA        .164E-02   77.00  165.80    3.19    0.00    0.00    0.00    0.20 3485.48 1327.59 1059.76 1046.06    4.94    2.04   31.39   13.01    9.11 1327.59
     64   9   URBAN LA   .616E-03   77.00    1.50    1.98    0.00    0.00    0.00    0.20 3485.48 2296.14    0.00 1170.76    0.00    0.02    0.00    0.11    0.08 2296.10



                AVE MONTHLY BASIN VALUES
                   SNOW                      WATER               SED
  MON     RAIN     FALL   SURF Q    LAT Q    YIELD       ET    YIELD      PET
          (MM)     (MM)     (MM)     (MM)     (MM)     (MM)   (T/HA)     (MM)
    1   573.80     0.00   155.13   296.00   457.77    91.46    11.29   128.89
    2   248.15     0.00    52.74   131.76   192.00    83.28     1.63   125.47
    3   158.30     0.00    17.90    65.94    90.22   107.49     0.05   141.28
    4   352.75     0.00    45.79   168.26   216.18    91.61     0.13   122.56
    5   177.95     0.00    18.52    94.14   115.08    79.23     0.05   137.55
    6   251.80     0.00    60.16   112.32   174.91    72.04     0.23   113.42
    7   488.95     0.00   219.08   169.38   390.59    69.14     1.04   107.34
    8   292.00     0.00    75.56   149.45   229.18    72.55     0.58   123.69
    9   138.15     0.00    12.47    61.24    77.54    69.11     0.13   144.04
   10   162.50     0.00    28.40    66.78    97.09    63.81     0.54   170.09
   11   256.55     0.00    35.75   127.79   164.35    81.81     0.88   142.36
   12   380.10     0.00    84.36   183.94   270.81    96.73     5.74   146.62

     AVE ANNUAL BASIN STRESS DAYS
               WATER STRESS DAYS =     2.95
               TEMPERATURE STRESS DAYS =     0.14
               NITROGEN STRESS DAYS =     4.16
               PHOSPHORUS STRESS DAYS =     0.03
               AERATION STRESS DAYS =     0.00
1
    SWAT Dec 23 2016    VER 2016/Rev 664                                            

    General Input/Output section (file.cio):                                        
    2/12/2020 14:35:46 QSWAT Workflow v1.5.2                                        
                                                                                    
         AVE ANNUAL BASIN VALUES

              PRECIP =   3485.5 MM
              SNOW FALL =    0.00 MM
              SNOW MELT =     0.00 MM
              SUBLIMATION =     0.00 MM
              SURFACE RUNOFF Q =   807.26 MM
              LATERAL SOIL Q = 1629.55 MM
              TILE Q =     0.00 MM
              GROUNDWATER (SHAL AQ) Q =    39.73 MM
              GROUNDWATER (DEEP AQ) Q =     3.15 MM
              REVAP (SHAL AQ => SOIL/PLANTS) =   32.06 MM
              DEEP AQ RECHARGE =     3.03 MM
              TOTAL AQ RECHARGE =   60.67 MM
              TOTAL WATER YLD =  2479.69 MM
              PERCOLATION OUT OF SOIL =   62.09 MM
              ET =    978.4 MM
              PET =   1603.2MM
              TRANSMISSION LOSSES =     0.00 MM
              SEPTIC INFLOW =       0.00 MM
              TOTAL SEDIMENT LOADING =     22.42 T/HA
              TILE FROM IMPOUNDED WATER =     0.000 (MM)
              EVAPORATION FROM IMPOUNDED WATER =     0.000 (MM)
              SEEPAGE INTO SOIL FROM IMPOUNDED WATER =    0.000 (MM)
              OVERFLOW FROM IMPOUNDED WATER =    0.000 (MM)
1
    SWAT Dec 23 2016    VER 2016/Rev 664                                            

    General Input/Output section (file.cio):                                        
    2/12/2020 14:35:46 QSWAT Workflow v1.5.2                                        
                                                                                    
              AVE ANNUAL BASIN VALUES


              NUTRIENTS
                   ORGANIC N =    43.372 (KG/HA)
                   ORGANIC P =     5.355 (KG/HA)
                   NO3 YIELD (SQ) =     0.266 (KG/HA)
                   NO3 YIELD (LAT) =    2.452 (KG/HA)
                   NO3 YIELD (TILE) =    0.000 (KG/HA)
                   SOLP YIELD (TILE) =    0.000(KG/HA)
                   SOLP YIELD (SURF INLET RISER) =    0.000 (KG/HA)
                   SOL P YIELD =    0.052 (KG/HA)
                   NO3 LEACHED =     1.751 (KG/HA)
                   P LEACHED =     0.028 (KG/HA)
                   N UPTAKE =    12.424 (KG/HA)
                   P UPTAKE =    2.368 (KG/HA)
                   NO3 YIELD (GWQ) =     0.009 (KG/HA)
                   ACTIVE TO SOLUTION P FLOW =         0.417 (KG/HA)
                   ACTIVE TO STABLE P FLOW =         0.791 (KG/HA)
                   N FERTILIZER APPLIED =     3.260 (KG/HA)
                   P FERTILIZER APPLIED =     0.000 (KG/HA)
                   N FIXATION =     0.000 (KG/HA)
                   DENITRIFICATION =     0.000 (KG/HA)
                   HUMUS MIN ON ACTIVE ORG N =    15.367 (KG/HA)
                   ACTIVE TO STABLE ORG N =    -7.961 (KG/HA)
                   HUMUS MIN ON ACTIVE ORG P =    2.630 (KG/HA)
                   MIN FROM FRESH ORG N =    2.591 (KG/HA)
                   MIN FROM FRESH ORG P =    0.508 (KG/HA)
                   NO3 IN RAINFALL =     0.000 (KG/HA)
                   INITIAL NO3 IN SOIL =      37.089 (KG/HA)
                   FINAL NO3 IN SOIL =         7.356 (KG/HA)
                   INITIAL ORG N IN SOIL =   13045.640 (KG/HA)
                   FINAL ORG N IN SOIL =     12545.288 (KG/HA)
                   INITIAL MIN P IN SOIL =    2014.960 (KG/HA)
                   FINAL MIN P IN SOIL =      1975.027 (KG/HA)
                   INITIAL ORG P IN SOIL =    1598.091 (KG/HA)
                   FINAL ORG P IN SOIL =    1533.093 (KG/HA)
                   NO3 IN FERT =     3.260 (KG/HA)
                   AMMONIA IN FERT =     0.000 (KG/HA)
                   ORG N IN FERT =     0.000 (KG/HA)
                   MINERAL P IN FERT =     0.000 (KG/HA)
                   ORG P IN FERT =     0.000 (KG/HA)
                   N REMOVED IN YIELD =     9.294 (KG/HA)
                   P REMOVED IN YIELD =     1.805 (KG/HA)
                   AMMONIA VOLATILIZATION =     0.000 (KG/HA)
                   AMMONIA NITRIFICATION =      0.000 (KG/HA)
                   NO3 EVAP-LAYER 2 TO 1 =    4.140

                   DIE-GRO P Q =           0.0 (No/M2)
                   DIE-GRO LP Q =           0.0 (No/M2)
                   DIE-GRO P SED =          0.0 (No/M2)
                   DIE-GRO LP SED =          0.0 (No/M2)
                   BACT P RUNOFF =          0.0 (No/M2)
                   BACT LP RUNOFF =          0.0 (No/M2)
                   BACT P SEDIMENT =          0.0 (No/M2)
                   BACT LP SEDIMENT =          0.0 (No/M2)
                   BACT P INCORP =          0.0 (No/M2)
                   BACT LP INCORP =          0.0 (No/M2)

                   NITRATE SEPTIC =         0.00 (kg/ha)
                   AMMONIA SEPTIC =         0.00 (kg/ha)
                   ORG N SEPTIC =         0.00 (kg/ha)
                   FRESH ORGN SEPTIC =         0.00 (kg/ha)
                   ORG P SEPTIC =         0.00 (kg/ha)
                   FRESH ORGP SEPTIC =         0.00 (kg/ha)
                   SOL P SEPTIC =         0.00 (kg/ha)
                   BOD SEPTIC =         0.00 (kg/ha)
