1
    SWAT Dec 23 2016    VER 2016/Rev 664                                                                 0/ 0/   0      0: 0: 0

    General Input/Output section (file.cio):                                        
    2/11/2020 16:50:08 QSWAT Workflow v1.5.2                                        
                                                                                    


LULC  HRU       GIS  SUB  MGT  MON   AREAkm2  PRECIPmm SNOFALLmm SNOMELTmm     IRRmm     PETmm      ETmm SW_INITmm  SW_ENDmm    PERCmm GW_RCHGmm DA_RCHGmm   REVAPmm  SA_IRRmm  DA_IRRmm   SA_STmm   DA_STmmSURQ_GENmmSURQ_CNTmm   TLOSSmm LATQGENmm    GW_Qmm    WYLDmm   DAILYCN TMP_AVdgC TMP_MXdgC TMP_MNdgCSOL_TMPdgCSOLARMJ/m2  SYLDt/ha  USLEt/haN_APPkg/haP_APPkg/haNAUTOkg/haPAUTOkg/ha NGRZkg/ha PGRZkg/haNCFRTkg/haPCFRTkg/haNRAINkg/ha NFIXkg/ha F-MNkg/ha A-MNkg/ha A-SNkg/ha F-MPkg/haAO-LPkg/ha L-APkg/ha A-SPkg/ha DNITkg/ha  NUPkg/ha  PUPkg/ha ORGNkg/ha ORGPkg/ha SEDPkg/haNSURQkg/haNLATQkg/ha NO3Lkg/haNO3GWkg/ha SOLPkg/ha P_GWkg/ha    W_STRS  TMP_STRS    N_STRS    P_STRS  BIOMt/ha       LAI   YLDt/ha  BACTPct   BACTLPct WTAB CLIm WTAB SOLm     SNOmm CMUPkg/haCMTOTkg/ha   QTILEmm TNO3kg/ha LNO3kg/ha  GW_Q_Dmm LATQCNTmm TVAPkg/ha
FRSE    1 000010001    1    0    1.72643E-01   576.600     0.000     0.000     0.000   117.347    87.595    91.513    96.086    10.482     5.308     0.265     2.347     0.000     0.000   948.529  2000.482   162.595   162.595     0.000   296.539     0.000   459.256    84.656    26.316    28.503    24.129    25.506    15.425    10.733     8.186     0.000     0.000     0.000     0.000     0.000     0.000     0.000     0.000     0.000     0.000     0.011     1.096    -0.822     0.002     0.187     0.173     0.292     0.000     0.000     0.000    25.067     3.062     2.453     0.005     0.425     0.263     0.000     0.009     0.000     0.000     0.000     0.000     0.000     0.000     0.000     0.000 .00000E+00 .00000E+00 0.246E-04 0.404E+04 0.000E+00 0.000E+00 0.000E+00 0.000E+00 0.000E+00 0.425E+00     0.122   296.539     0.000
FRSE    2 000020001    2    0    1.84237E-01   576.600     0.000     0.000     0.000   117.338    87.723    91.659    96.085    12.186     6.337     0.317     2.347     0.000     0.000   978.404  2000.596   162.987   162.987     0.000   294.587     0.000   457.728    84.684    26.316    28.503    24.129    25.507    15.425    10.174     9.146     0.000     0.000     0.000     0.000     0.000     0.000     0.000     0.000     0.000     0.000     0.011     1.095    -0.825     0.002     0.187     0.169     0.288     0.000     0.000     0.000    24.601     3.005     2.406     0.005     0.431     0.331     0.000     0.009     0.000     0.000     0.000     0.000     0.000     0.000     0.000     0.000 .00000E+00 .00000E+00 0.250E-04 0.404E+04 0.000E+00 0.000E+00 0.000E+00 0.000E+00 0.000E+00 0.431E+00     0.154   294.587     0.000
FRSD    3 000020002    2    0    1.51302E-03   576.600     0.000     0.000     0.000   117.338    82.609    90.683    96.154     4.628     1.522     0.076     2.347     0.000     0.000   816.215  2000.093   224.491   224.491     0.000   245.768     0.000   470.276    89.094    26.316    28.503    24.129    25.311    15.425     0.089     0.141     0.000     0.000     0.000     0.000     0.000     0.000     0.000     0.000     0.000     0.000     0.342     1.133    -0.782     0.293     0.194     0.489     0.532     0.000     0.000     0.000     0.672     0.087     0.068     0.039     0.372     0.015     0.000     0.050     0.000     0.000     0.000     0.000     0.000     0.000     0.000     0.000 .00000E+00 .00000E+00 0.324E-04 0.404E+04 0.000E+00 0.000E+00 0.000E+00 0.000E+00 0.000E+00 0.372E+00     0.016   245.768     0.000
FRSE    4 000030001    3    0    1.42478E-01   576.600     0.000     0.000     0.000   117.354    87.968    91.921    96.087    15.709     8.481     0.424     2.347     0.000     0.000  1002.689  2000.837   163.601   163.601     0.000   290.705     2.452   456.979    84.732    26.316    28.503    24.129    25.508    15.425     8.246     4.822     0.000     0.000     0.000     0.000     0.000     0.000     0.000     0.000     0.000     0.000     0.012     1.096    -0.830     0.003     0.187     0.160     0.281     0.000     0.000     0.000    23.047     2.816     2.248     0.004     0.439     0.467     0.000     0.010     0.000     0.000     0.000     0.000     0.000     0.000     0.000     0.000 .00000E+00 .00000E+00 0.257E-04 0.404E+04 0.000E+00 0.000E+00 0.000E+00 0.000E+00 0.000E+00 0.439E+00     0.221   290.705     0.000
FRSE    5 000040001    4    0    1.64229E-01   576.600     0.000     0.000     0.000   117.348    87.606    91.526    96.086    10.620     5.391     0.270     2.347     0.000     0.000   951.042  2000.491   162.635   162.635     0.000   296.372     0.000   459.131    84.659    26.316    28.503    24.129    25.506    15.425    10.511     8.134     0.000     0.000     0.000     0.000     0.000     0.000     0.000     0.000     0.000     0.000     0.011     1.096    -0.822     0.002     0.187     0.172     0.291     0.000     0.000     0.000    24.912     3.043     2.437     0.005     0.426     0.269     0.000     0.009     0.000     0.000     0.000     0.000     0.000     0.000     0.000     0.000 .00000E+00 .00000E+00 0.246E-04 0.404E+04 0.000E+00 0.000E+00 0.000E+00 0.000E+00 0.000E+00 0.426E+00     0.124   296.372     0.000
FRSD    6 000040002    4    0    1.38989E-02   576.600     0.000     0.000     0.000   117.348    84.039    92.719    96.155    27.743    15.726     0.786     2.347     0.000     0.000  1004.548  2001.433   229.523   229.523     0.000   221.683    10.135   461.712    89.356    26.316    28.503    24.129    25.325    15.425     0.045     0.056     0.000     0.000     0.000     0.000     0.000     0.000     0.000     0.000     0.000     0.000     0.340     1.134    -0.822     0.287     0.194     0.426     0.445     0.000     0.000     0.000     0.418     0.053     0.041     0.032     0.381     0.329     0.000     0.054     0.000     0.000     0.000     0.000     0.000     0.000     0.000     0.000 .00000E+00 .00000E+00 0.568E-04 0.404E+04 0.000E+00 0.000E+00 0.000E+00 0.000E+00 0.000E+00 0.381E+00     0.371   221.683     0.000
FRSE    7 000050001    5    0    1.48223E-02   576.600     0.000     0.000     0.000   117.310    90.877   161.208   164.683   193.940   122.576     6.129     2.346     0.000     0.000  1047.626  2014.247    68.560    68.560     0.000   203.941    98.932   375.496    73.748    26.316    28.503    24.129    24.880    15.425     0.979     2.440     0.000     0.000     0.000     0.000     0.000     0.000     0.000     0.000     0.000     0.000     0.020     1.676    -1.317     0.004     0.286     0.044     0.108     0.000     0.000     0.000     8.639     1.055     0.774     0.001     0.225     2.546     0.040     0.011     0.000     0.000     0.000     0.000     0.000     0.000     0.000     0.000 .00000E+00 .00000E+00 0.907E-05 0.444E+04 0.000E+00 0.000E+00 0.000E+00 0.000E+00 0.000E+00 0.225E+00     4.062   203.941     0.000
FRSE    8 000050002    5    0    1.39091E-01   576.600     0.000     0.000     0.000   117.310    87.459    91.366    96.083     8.953     4.384     0.219     2.346     0.000     0.000   921.315  2000.383   162.142   162.142     0.000   298.407     0.000   460.643    84.629    26.316    28.503    24.129    25.506    15.425    10.707     4.128     0.000     0.000     0.000     0.000     0.000     0.000     0.000     0.000     0.000     0.000     0.011     1.097    -0.820     0.002     0.187     0.177     0.294     0.000     0.000     0.000    25.224     3.081     2.468     0.005     0.419     0.203     0.000     0.009     0.000     0.000     0.000     0.000     0.000     0.000     0.000     0.000 .00000E+00 .00000E+00 0.246E-04 0.404E+04 0.000E+00 0.000E+00 0.000E+00 0.000E+00 0.000E+00 0.419E+00     0.094   298.407     0.000
FRSD    9 000050003    5    0    1.41041E-03   576.600     0.000     0.000     0.000   117.310    83.679   161.471   164.777    63.830    38.380     1.919     2.346     0.000     0.000  1015.000  2003.755   138.346   138.346     0.000   275.663    28.597   443.613    82.514    26.316    28.503    24.129    24.460    15.425     0.007     0.014     0.000     0.000     0.000     0.000     0.000     0.000     0.000     0.000     0.000     0.000     0.512     1.701    -1.260     0.366     0.291     0.575     0.547     0.000     0.000     0.000     0.086     0.011     0.008     0.022     0.413     0.797     0.002     0.051     0.000     0.000     0.000     0.000     0.000     0.000     0.000     0.000 .00000E+00 .00000E+00 0.161E-04 0.444E+04 0.000E+00 0.000E+00 0.000E+00 0.000E+00 0.000E+00 0.413E+00     1.008   275.663     0.000
FRSD   10 000050004    5    0    1.10260E-03   576.600     0.000     0.000     0.000   117.310    83.638    92.544    96.153    18.263     9.803     0.490     2.346     0.000     0.000  1001.440  2000.818   229.282   229.282     0.000   230.985     0.319   460.788    89.334    26.316    28.503    24.129    25.322    15.425     0.011     0.068     0.000     0.000     0.000     0.000     0.000     0.000     0.000     0.000     0.000     0.000     0.348     1.142    -0.817     0.296     0.195     0.451     0.451     0.000     0.000     0.000     0.082     0.010     0.008     0.035     0.392     0.178     0.000     0.058     0.000     0.000     0.000     0.000     0.000     0.000     0.000     0.000 .00000E+00 .00000E+00 0.522E-04 0.404E+04 0.000E+00 0.000E+00 0.000E+00 0.000E+00 0.000E+00 0.392E+00     0.202   230.985     0.000
FRSD   11 000050005    5    0    1.10260E-03   576.600     0.000     0.000     0.000   117.310    84.475   161.776   164.776   190.571   121.452     6.073     2.346     0.000     0.000  1055.631  2012.913   234.450   234.450     0.000    59.451    95.224   392.715    89.644    26.316    28.503    24.129    24.467    15.425     0.000     0.010     0.000     0.000     0.000     0.000     0.000     0.000     0.000     0.000     0.000     0.000     0.500     1.699    -1.289     0.352     0.290     0.422     0.424     0.000     0.000     0.000     0.000     0.000     0.000     0.036     0.110     2.318     0.024     0.086     0.000     0.000     0.000     0.000     0.000     0.000     0.000     0.000 .00000E+00 .00000E+00 0.125E-03 0.444E+04 0.000E+00 0.000E+00 0.000E+00 0.000E+00 0.000E+00 0.110E+00     3.590    59.451     0.000
FRSD   12 000050006    5    0    1.10260E-03   576.600     0.000     0.000     0.000   117.310    84.597   161.821   164.775   233.437   150.220     7.511     2.346     0.000     0.000  1067.832  2016.212   234.510   234.474     0.000    18.995   118.618   376.620    89.647    26.316    28.503    24.129    24.471    15.425     0.000     0.008     0.000     0.000     0.000     0.000     0.000     0.000     0.000     0.000     0.000     0.000     0.492     1.696    -1.291     0.345     0.290     0.379     0.391     0.000     0.000     0.000     0.000     0.000     0.000     0.033     0.035     2.730     0.036     0.082     0.000     0.000     0.000     0.000     0.000     0.000     0.000     0.000 .00000E+00 .00000E+00 0.127E-03 0.444E+04 0.000E+00 0.000E+00 0.000E+00 0.000E+00 0.000E+00 0.349E-01     4.532    18.995     0.000
FRSE   13 000060001    6    0    1.85160E-02   576.600     0.000     0.000     0.000   117.305    90.907   161.220   164.683   204.411   129.401     6.470     2.346     0.000     0.000  1050.286  2015.056    68.570    68.570     0.000   194.240   104.556   371.662    73.750    26.316    28.503    24.129    24.880    15.425     0.930     1.495     0.000     0.000     0.000     0.000     0.000     0.000     0.000     0.000     0.000     0.000     0.019     1.677    -1.319     0.004     0.286     0.034     0.098     0.000     0.000     0.000     8.389     1.025     0.749     0.001     0.211     2.579     0.043     0.011     0.000     0.000     0.000     0.000     0.000     0.000     0.000     0.000 .00000E+00 .00000E+00 0.909E-05 0.444E+04 0.000E+00 0.000E+00 0.000E+00 0.000E+00 0.000E+00 0.211E+00     4.297   194.240     0.000
FRSE   14 000060002    6    0    1.76542E-01   576.600     0.000     0.000     0.000   117.305    88.512    92.309    96.082    28.858    16.654     0.833     2.346     0.000     0.000  1002.512  2001.751   164.243   164.243     0.000   277.812    12.211   454.742    84.803    26.316    28.503    24.129    25.511    15.425     6.197     4.450     0.000     0.000     0.000     0.000     0.000     0.000     0.000     0.000     0.000     0.000     0.012     1.096    -0.841     0.003     0.187     0.133     0.260     0.000     0.000     0.000    20.717     2.531     2.017     0.004     0.432     0.856     0.001     0.010     0.000     0.000     0.000     0.000     0.000     0.000     0.000     0.000 .00000E+00 .00000E+00 0.293E-04 0.404E+04 0.000E+00 0.000E+00 0.000E+00 0.000E+00 0.000E+00 0.432E+00     0.477   277.812     0.000
FRSE   15 000060003    6    0    1.10261E-03   576.600     0.000     0.000     0.000   117.305    91.281   161.398   164.683   287.576   184.898     9.245     2.346     0.000     0.000  1074.796  2021.579   169.871   169.839     0.000    20.541   149.766   346.315    85.271    26.316    28.503    24.129    24.882    15.425     0.845     1.635     0.000     0.000     0.000     0.000     0.000     0.000     0.000     0.000     0.000     0.000     0.018     1.681    -1.325     0.004     0.287    -0.036     0.034     0.000     0.000     0.000     9.018     1.102     0.787     0.003     0.025     3.151     0.077     0.030     0.000     0.000     0.000     0.000     0.000     0.000     0.000     0.000 .00000E+00 .00000E+00 0.390E-04 0.444E+04 0.000E+00 0.000E+00 0.000E+00 0.000E+00 0.000E+00 0.251E-01     6.169    20.541     0.000
FRSE   16 000060004    6    0    1.10261E-03   576.600     0.000     0.000     0.000   117.305    91.152   161.339   164.683   237.918   152.135     7.607     2.346     0.000     0.000  1055.201  2017.660   169.782   169.782     0.000    66.923   122.761   364.504    85.265    26.316    28.503    24.129    24.880    15.425     0.753     1.771     0.000     0.000     0.000     0.000     0.000     0.000     0.000     0.000     0.000     0.000     0.020     1.684    -1.325     0.004     0.288     0.002     0.060     0.000     0.000     0.000     8.371     1.022     0.729     0.004     0.087     3.037     0.061     0.032     0.000     0.000     0.000     0.000     0.000     0.000     0.000     0.000 .00000E+00 .00000E+00 0.390E-04 0.444E+04 0.000E+00 0.000E+00 0.000E+00 0.000E+00 0.000E+00 0.867E-01     5.038    66.923     0.000
FRSE   17 000070001    7    0    1.42478E-01   576.600     0.000     0.000     0.000   117.320    88.180    92.090    96.084    20.304    11.316     0.566     2.346     0.000     0.000  1003.465  2001.148   163.955   163.955     0.000   286.132     5.052   455.449    84.763    26.316    28.503    24.129    25.509    15.425     7.155     7.853     0.000     0.000     0.000     0.000     0.000     0.000     0.000     0.000     0.000     0.000     0.012     1.096    -0.835     0.003     0.187     0.150     0.273     0.000     0.000     0.000    21.926     2.679     2.136     0.004     0.442     0.626     0.000     0.010     0.000     0.000     0.000     0.000     0.000     0.000     0.000     0.000 .00000E+00 .00000E+00 0.272E-04 0.404E+04 0.000E+00 0.000E+00 0.000E+00 0.000E+00 0.000E+00 0.442E+00     0.309   286.132     0.000
FRSD   18 000070002    7    0    1.14364E-02   576.600     0.000     0.000     0.000   117.320    83.813    92.636    96.153    21.656    11.908     0.595     2.346     0.000     0.000  1004.216  2001.033   229.418   229.418     0.000   227.600     3.375   460.655    89.345    26.316    28.503    24.129    25.324    15.425     0.047     0.064     0.000     0.000     0.000     0.000     0.000     0.000     0.000     0.000     0.000     0.000     0.344     1.135    -0.817     0.292     0.194     0.443     0.460     0.000     0.000     0.000     0.432     0.055     0.043     0.034     0.387     0.230     0.000     0.054     0.000     0.000     0.000     0.000     0.000     0.000     0.000     0.000 .00000E+00 .00000E+00 0.539E-04 0.404E+04 0.000E+00 0.000E+00 0.000E+00 0.000E+00 0.000E+00 0.387E+00     0.262   227.600     0.000
FRSE   19 000080001    8    0    1.10260E-03   576.600     0.000     0.000     0.000   117.307    90.083    92.942    96.080   310.949   201.212    10.061     2.346     0.000     0.000  1083.631  2023.672   165.523   165.081     0.000     6.445   163.712   342.024    84.918    26.316    28.503    24.129    25.523    15.425     0.381     1.123     0.000     0.000     0.000     0.000     0.000     0.000     0.000     0.000     0.000     0.000     0.008     1.139    -0.904     0.002     0.194    -0.269    -0.170     0.000     0.000     0.000     5.244     0.640     0.464     0.003     0.006     1.766     0.050     0.033     0.000     0.000     0.000     0.000     0.000     0.000     0.000     0.000 .00000E+00 .00000E+00 0.337E-04 0.404E+04 0.000E+00 0.000E+00 0.000E+00 0.000E+00 0.000E+00 0.593E-02     6.786     6.445     0.000
FRSE   20 000080002    8    0    1.33859E-01   576.600     0.000     0.000     0.000   117.307    87.999    91.963    96.083    16.449     8.933     0.447     2.346     0.000     0.000  1002.151  2000.883   163.698   163.699     0.000   289.949     4.211   458.092    84.740    26.316    28.503    24.129    25.508    15.425     7.834     8.334     0.000     0.000     0.000     0.000     0.000     0.000     0.000     0.000     0.000     0.000     0.012     1.097    -0.831     0.003     0.187     0.158     0.280     0.000     0.000     0.000    22.688     2.772     2.211     0.004     0.440     0.494     0.000     0.010     0.000     0.000     0.000     0.000     0.000     0.000     0.000     0.000 .00000E+00 .00000E+00 0.264E-04 0.404E+04 0.000E+00 0.000E+00 0.000E+00 0.000E+00 0.000E+00 0.440E+00     0.235   289.949     0.000
BARR   21 000080003    8    0    1.51302E-03   576.600     0.000     0.000     0.000   117.307    85.429    81.293    92.421     0.000     0.003     0.000     2.346     0.000     0.000   783.168  2000.028   389.798   389.798     0.000    78.537     0.000   468.344    96.137    26.316    28.503    24.129    25.479    15.425    13.900     7.741     0.000     0.000     0.000     0.000     0.000     0.000     0.000     0.000     0.000     0.000     0.000     1.054    -0.833     0.000     0.180     0.190     0.320     0.000     0.000     0.000    23.070     2.813     2.360     0.032     0.254     0.000     0.000     0.016     0.000     0.000     0.000     0.000     0.000     0.000     0.000     0.000 .00000E+00 .00000E+00 0.366E+00 0.404E+04 0.000E+00 0.000E+00 0.000E+00 0.000E+00 0.000E+00 0.254E+00     0.009    78.537     0.000
FRSD   22 000080004    8    0    1.20521E-03   576.600     0.000     0.000     0.000   117.307    83.472    92.418    96.153    14.956     7.751     0.388     2.346     0.000     0.000   981.505  2000.616   229.023   229.023     0.000   234.292     0.000   463.461    89.318    26.316    28.503    24.129    25.321    15.425     0.039     0.042     0.000     0.000     0.000     0.000     0.000     0.000     0.000     0.000     0.000     0.000     0.348     1.139    -0.810     0.298     0.195     0.462     0.471     0.000     0.000     0.000     0.329     0.042     0.032     0.036     0.392     0.128     0.000     0.056     0.000     0.000     0.000     0.000     0.000     0.000     0.000     0.000 .00000E+00 .00000E+00 0.483E-04 0.404E+04 0.000E+00 0.000E+00 0.000E+00 0.000E+00 0.000E+00 0.392E+00     0.147   234.292     0.000
FRSE   23 000090001    9    0    1.10671E-01   576.600     0.000     0.000     0.000   117.290    91.010   161.263   164.682   242.165   154.038     7.702     2.346     0.000     0.000  1056.651  2018.003    68.602    68.602     0.000   157.052   125.242   356.043    73.757    26.316    28.503    24.129    24.881    15.425     0.916     1.435     0.000     0.000     0.000     0.000     0.000     0.000     0.000     0.000     0.000     0.000     0.018     1.676    -1.320     0.004     0.286     0.000     0.073     0.000     0.000     0.000     8.308     1.015     0.739     0.001     0.162     2.673     0.055     0.011     0.000     0.000     0.000     0.000     0.000     0.000     0.000     0.000 .00000E+00 .00000E+00 0.918E-05 0.444E+04 0.000E+00 0.000E+00 0.000E+00 0.000E+00 0.000E+00 0.162E+00     5.147   157.052     0.000
FRSE   24 000090002    9    0    1.10773E-01   576.600     0.000     0.000     0.000   117.290    88.173    92.092    96.081    20.307    11.317     0.566     2.346     0.000     0.000  1003.466  2001.148   163.960   163.960     0.000   286.141     5.041   455.451    84.764    26.316    28.503    24.129    25.509    15.425     6.069    10.154     0.000     0.000     0.000     0.000     0.000     0.000     0.000     0.000     0.000     0.000     0.013     1.099    -0.836     0.003     0.188     0.149     0.271     0.000     0.000     0.000    20.983     2.564     2.038     0.004     0.443     0.627     0.000     0.011     0.000     0.000     0.000     0.000     0.000     0.000     0.000     0.000 .00000E+00 .00000E+00 0.275E-04 0.404E+04 0.000E+00 0.000E+00 0.000E+00 0.000E+00 0.000E+00 0.443E+00     0.309   286.141     0.000
FRSD   25 000090003    9    0    1.20520E-03   576.600     0.000     0.000     0.000   117.290    82.920    91.786    96.151     7.235     2.704     0.135     2.346     0.000     0.000   853.283  2000.168   227.488   227.488     0.000   242.849     0.000   470.368    89.238    26.316    28.503    24.129    25.318    15.425     0.057     0.126     0.000     0.000     0.000     0.000     0.000     0.000     0.000     0.000     0.000     0.000     0.347     1.138    -0.790     0.299     0.195     0.486     0.512     0.000     0.000     0.000     0.499     0.064     0.050     0.040     0.383     0.032     0.000     0.053     0.000     0.000     0.000     0.000     0.000     0.000     0.000     0.000 .00000E+00 .00000E+00 0.355E-04 0.404E+04 0.000E+00 0.000E+00 0.000E+00 0.000E+00 0.000E+00 0.383E+00     0.031   242.849     0.000
FRSE   26 000100001   10    0    1.69768E-02   576.600     0.000     0.000     0.000   117.282    91.024   161.270   164.681   248.081   157.902     7.895     2.346     0.000     0.000  1059.274  2018.469    68.607    68.607     0.000   151.643   128.436   353.966    73.758    26.316    28.503    24.129    24.882    15.425     0.808     1.331     0.000     0.000     0.000     0.000     0.000     0.000     0.000     0.000     0.000     0.000     0.018     1.679    -1.322     0.004     0.287    -0.008     0.062     0.000     0.000     0.000     7.696     0.940     0.679     0.001     0.156     2.689     0.056     0.012     0.000     0.000     0.000     0.000     0.000     0.000     0.000     0.000 .00000E+00 .00000E+00 0.923E-05 0.444E+04 0.000E+00 0.000E+00 0.000E+00 0.000E+00 0.000E+00 0.156E+00     5.280   151.643     0.000
FRSE   27 000100002   10    0    1.24624E-02   576.600     0.000     0.000     0.000   117.282    87.548    91.480    96.081    10.082     5.064     0.253     2.346     0.000     0.000   940.946  2000.454   162.491   162.491     0.000   297.043     0.000   459.647    84.650    26.316    28.503    24.129    25.506    15.425     7.284    10.521     0.000     0.000     0.000     0.000     0.000     0.000     0.000     0.000     0.000     0.000     0.013     1.100    -0.824     0.003     0.188     0.172     0.289     0.000     0.000     0.000    22.631     2.765     2.201     0.005     0.427     0.247     0.000     0.010     0.000     0.000     0.000     0.000     0.000     0.000     0.000     0.000 .00000E+00 .00000E+00 0.251E-04 0.404E+04 0.000E+00 0.000E+00 0.000E+00 0.000E+00 0.000E+00 0.427E+00     0.114   297.043     0.000
FRSE   28 000100003   10    0    1.82080E-03   576.600     0.000     0.000     0.000   117.282    91.258   161.391   164.681   280.486   180.211     9.011     2.346     0.000     0.000  1072.171  2021.014   169.860   169.840     0.000    26.403   145.893   348.142    85.270    26.316    28.503    24.129    24.882    15.425     1.648     2.161     0.000     0.000     0.000     0.000     0.000     0.000     0.000     0.000     0.000     0.000     0.017     1.668    -1.316     0.004     0.285    -0.012     0.086     0.000     0.000     0.000    13.097     1.600     1.190     0.003     0.032     3.112     0.074     0.021     0.000     0.000     0.000     0.000     0.000     0.000     0.000     0.000 .00000E+00 .00000E+00 0.393E-04 0.444E+04 0.000E+00 0.000E+00 0.000E+00 0.000E+00 0.000E+00 0.321E-01     6.006    26.403     0.000
FRSE   29 000100004   10    0    1.51300E-03   576.600     0.000     0.000     0.000   117.282    91.259   161.392   164.681   280.987   180.542     9.027     2.346     0.000     0.000  1072.294  2021.057   169.861   169.840     0.000    25.990   146.166   348.014    85.270    26.316    28.503    24.129    24.882    15.425     1.517     2.104     0.000     0.000     0.000     0.000     0.000     0.000     0.000     0.000     0.000     0.000     0.017     1.669    -1.317     0.004     0.285    -0.015     0.077     0.000     0.000     0.000    12.574     1.536     1.137     0.003     0.032     3.116     0.074     0.022     0.000     0.000     0.000     0.000     0.000     0.000     0.000     0.000 .00000E+00 .00000E+00 0.393E-04 0.444E+04 0.000E+00 0.000E+00 0.000E+00 0.000E+00 0.000E+00 0.316E-01     6.018    25.990     0.000
SWCH   30 000110001   11    0    1.92344E-03   576.600     0.000     0.000     0.000   117.282    83.473   161.701   164.784   180.209   117.990     5.899     2.346     0.000     0.000  1058.747  2012.783    91.406    91.406     0.000   204.986    96.521   396.496    77.191    26.316    28.503    24.129    24.435    15.425     0.015     0.046     0.000     0.000     0.000     0.000     0.000     0.000     0.000     0.000     0.000     0.000     4.485     1.876    -0.958     1.180     0.322     1.166     1.013     0.000     0.000     0.000     0.246     0.032     0.017     0.056     0.906     3.819     0.040     0.045     0.000     0.000     0.000     0.000     0.000     0.000     0.000     0.000 .00000E+00 .00000E+00 0.902E-05 0.444E+04 0.000E+00 0.000E+00 0.000E+00 0.000E+00 0.000E+00 0.906E+00     3.583   204.986     0.000
FRSE   31 000110002   11    0    1.20521E-03   576.600     0.000     0.000     0.000   117.282    91.375   161.631   165.124   407.777   262.798    13.140     2.346     0.000     0.000  1121.550  2031.082    69.019    68.823     0.000     3.996   215.396   297.139    73.813    26.316    28.503    24.129    24.887    15.425     0.053     0.335     0.000     0.000     0.000     0.000     0.000     0.000     0.000     0.000     0.000     0.000     0.016     1.703    -1.344     0.004     0.291    -0.166    -0.078     0.000     0.000     0.000     0.804     0.098     0.065     0.001     0.004     2.981     0.104     0.019     0.000     0.000     0.000     0.000     0.000     0.000     0.000     0.000 .00000E+00 .00000E+00 0.947E-05 0.444E+04 0.000E+00 0.000E+00 0.000E+00 0.000E+00 0.000E+00 0.361E-02     8.924     3.996     0.000
FRSE   32 000110003   11    0    1.72849E-02   576.600     0.000     0.000     0.000   117.282    90.999   161.260   164.681   238.957   151.942     7.597     2.346     0.000     0.000  1055.202  2017.753    68.600    68.600     0.000   159.992   123.507   357.174    73.756    26.316    28.503    24.129    24.881    15.425     0.911     1.493     0.000     0.000     0.000     0.000     0.000     0.000     0.000     0.000     0.000     0.000     0.018     1.676    -1.320     0.004     0.286     0.003     0.074     0.000     0.000     0.000     8.282     1.012     0.736     0.001     0.166     2.666     0.054     0.011     0.000     0.000     0.000     0.000     0.000     0.000     0.000     0.000 .00000E+00 .00000E+00 0.923E-05 0.444E+04 0.000E+00 0.000E+00 0.000E+00 0.000E+00 0.000E+00 0.166E+00     5.074   159.992     0.000
FRSE   33 000110004   11    0    1.11799E-01   576.600     0.000     0.000     0.000   117.282    88.757    92.421    96.080    37.502    22.119     1.106     2.346     0.000     0.000  1005.114  2002.376   164.367   164.367     0.000   269.462    16.654   451.136    84.824    26.316    28.503    24.129    25.512    15.425     4.155     3.838     0.000     0.000     0.000     0.000     0.000     0.000     0.000     0.000     0.000     0.000     0.012     1.101    -0.848     0.003     0.188     0.118     0.241     0.000     0.000     0.000    18.487     2.259     1.789     0.004     0.414     1.014     0.002     0.012     0.000     0.000     0.000     0.000     0.000     0.000     0.000     0.000 .00000E+00 .00000E+00 0.314E-04 0.404E+04 0.000E+00 0.000E+00 0.000E+00 0.000E+00 0.000E+00 0.414E+00     0.654   269.462     0.000
FRSE   34 000110005   11    0    1.10261E-03   576.600     0.000     0.000     0.000   117.282    91.327   161.582   165.004   307.461   198.202     9.910     2.346     0.000     0.000  1082.479  2023.174   170.133   169.596     0.000     3.551   160.773   340.551    85.287    26.316    28.503    24.129    24.883    15.425     0.127     0.343     0.000     0.000     0.000     0.000     0.000     0.000     0.000     0.000     0.000     0.000     0.019     1.701    -1.340     0.004     0.291    -0.077    -0.010     0.000     0.000     0.000     2.005     0.245     0.165     0.004     0.004     3.228     0.085     0.046     0.000     0.000     0.000     0.000     0.000     0.000     0.000     0.000 .00000E+00 .00000E+00 0.394E-04 0.444E+04 0.000E+00 0.000E+00 0.000E+00 0.000E+00 0.000E+00 0.437E-02     6.631     3.551     0.000
FRSE   35 000110006   11    0    1.71823E-03   576.600     0.000     0.000     0.000   117.282    91.285   161.420   164.712   291.698   187.633     9.382     2.346     0.000     0.000  1076.338  2021.904   169.901   169.857     0.000    17.112   152.019   345.250    85.273    26.316    28.503    24.129    24.882    15.425     0.804     0.868     0.000     0.000     0.000     0.000     0.000     0.000     0.000     0.000     0.000     0.000     0.018     1.682    -1.326     0.004     0.287    -0.041     0.030     0.000     0.000     0.000     8.773     1.072     0.764     0.003     0.021     3.161     0.079     0.031     0.000     0.000     0.000     0.000     0.000     0.000     0.000     0.000 .00000E+00 .00000E+00 0.393E-04 0.444E+04 0.000E+00 0.000E+00 0.000E+00 0.000E+00 0.000E+00 0.208E-01     6.263    17.112     0.000
FRSD   36 000110007   11    0    1.25651E-02   576.600     0.000     0.000     0.000   117.282    84.398   161.662   164.772   171.815   109.000     5.450     2.346     0.000     0.000  1049.345  2011.755   138.574   138.574     0.000   167.898    86.088   395.841    82.534    26.316    28.503    24.129    24.473    15.425     0.009     0.014     0.000     0.000     0.000     0.000     0.000     0.000     0.000     0.000     0.000     0.000     0.484     1.692    -1.286     0.340     0.289     0.438     0.438     0.000     0.000     0.000     0.112     0.014     0.010     0.017     0.247     1.922     0.018     0.047     0.000     0.000     0.000     0.000     0.000     0.000     0.000     0.000 .00000E+00 .00000E+00 0.203E-04 0.444E+04 0.000E+00 0.000E+00 0.000E+00 0.000E+00 0.000E+00 0.247E+00     3.280   167.898     0.000
FRSD   37 000110008   11    0    1.15391E-02   576.600     0.000     0.000     0.000   117.282    84.077    92.746    96.150    29.533    16.859     0.843     2.346     0.000     0.000  1004.596  2001.555   229.559   229.559     0.000   219.966    11.287   461.216    89.359    26.316    28.503    24.129    25.326    15.425     0.038     0.061     0.000     0.000     0.000     0.000     0.000     0.000     0.000     0.000     0.000     0.000     0.340     1.137    -0.825     0.286     0.194     0.420     0.431     0.000     0.000     0.000     0.364     0.046     0.035     0.032     0.380     0.359     0.000     0.055     0.000     0.000     0.000     0.000     0.000     0.000     0.000     0.000 .00000E+00 .00000E+00 0.587E-04 0.404E+04 0.000E+00 0.000E+00 0.000E+00 0.000E+00 0.000E+00 0.380E+00     0.404   219.966     0.000
FRSD   38 000110009   11    0    1.20521E-03   576.600     0.000     0.000     0.000   117.282    84.610   161.974   165.059   253.322   163.981     8.199     2.346     0.000     0.000  1071.214  2017.796   234.691   233.122     0.000     1.615   129.889   369.610    89.657    26.316    28.503    24.129    24.472    15.425     0.000     0.001     0.000     0.000     0.000     0.000     0.000     0.000     0.000     0.000     0.000     0.000     0.492     1.709    -1.302     0.343     0.292     0.355     0.372     0.000     0.000     0.000     0.000     0.000     0.000     0.033     0.003     2.928     0.042     0.092     0.000     0.000     0.000     0.000     0.000     0.000     0.000     0.000 .00000E+00 .00000E+00 0.126E-03 0.444E+04 0.000E+00 0.000E+00 0.000E+00 0.000E+00 0.000E+00 0.302E-02     4.984     1.615     0.000
FRSD   39 000110010   11    0    1.12312E-02   576.600     0.000     0.000     0.000   117.282    84.600   161.822   164.772   234.056   150.643     7.532     2.346     0.000     0.000  1068.008  2016.265   234.511   234.472     0.000    18.471   118.961   376.450    89.647    26.316    28.503    24.129    24.472    15.425     0.008     0.006     0.000     0.000     0.000     0.000     0.000     0.000     0.000     0.000     0.000     0.000     0.490     1.692    -1.289     0.344     0.289     0.380     0.394     0.000     0.000     0.000     0.112     0.014     0.010     0.033     0.034     2.729     0.036     0.079     0.000     0.000     0.000     0.000     0.000     0.000     0.000     0.000 .00000E+00 .00000E+00 0.128E-03 0.444E+04 0.000E+00 0.000E+00 0.000E+00 0.000E+00 0.000E+00 0.339E-01     4.546    18.471     0.000
FRSD   40 000110011   11    0    1.10261E-03   576.600     0.000     0.000     0.000   117.282    83.755    92.622    96.150    20.938    11.461     0.573     2.346     0.000     0.000  1003.750  2000.991   229.400   229.400     0.000   228.343     2.558   460.549    89.344    26.316    28.503    24.129    25.323    15.425     0.010     0.043     0.000     0.000     0.000     0.000     0.000     0.000     0.000     0.000     0.000     0.000     0.347     1.143    -0.820     0.294     0.195     0.442     0.441     0.000     0.000     0.000     0.077     0.010     0.007     0.035     0.390     0.219     0.000     0.059     0.000     0.000     0.000     0.000     0.000     0.000     0.000     0.000 .00000E+00 .00000E+00 0.541E-04 0.404E+04 0.000E+00 0.341E+04 0.121E+06 0.000E+00 0.000E+00 0.390E+00     0.249   228.343     0.000
FRSE    1 000010001    1    0    2.72643E-01   144.700     0.000     0.000     0.000   106.785    68.503    80.242    47.582     3.671     6.495     0.325     2.136     0.000     0.000   952.563  2000.643    42.253    42.253     0.000    88.615     0.000   131.032    82.151    26.895    29.579    24.211    25.637    16.480     5.394     0.402     0.000     0.000     0.000     0.000     0.000     0.000     0.000     0.000     0.000     0.000     0.006     0.890    -0.745     0.001     0.152    -0.603     0.037     0.000     5.465     1.207     6.787     0.829     0.665     0.000     0.121     0.113     0.000     0.002     0.000     0.000     0.034     0.462     0.000     2.368     5.000     0.019 .00000E+00 .00000E+00 0.129E-05 0.404E+04 0.000E+00 0.000E+00 0.000E+00 0.000E+00 0.000E+00 0.121E+00     0.164    88.615     0.000
FRSE    2 000020001    2    0    2.84237E-01   144.700     0.000     0.000     0.000   106.764    68.488    80.247    47.594     4.150     7.529     0.376     2.135     0.000     0.000   983.422  2000.774    42.254    42.254     0.000    88.075     0.000   130.529    82.152    26.895    29.579    24.211    25.637    16.480     5.098     5.941     0.000     0.000     0.000     0.000     0.000     0.000     0.000     0.000     0.000     0.000     0.006     0.889    -0.747     0.001     0.152    -0.603     0.034     0.000     5.245     1.197     6.702     0.819     0.657     0.000     0.121     0.132     0.000     0.002     0.000     0.000     0.034     0.605     0.000     2.346     5.000     0.019 .00000E+00 .00000E+00 0.131E-05 0.404E+04 0.000E+00 0.000E+00 0.000E+00 0.000E+00 0.000E+00 0.121E+00     0.199    88.075     0.000
FRSD    3 000020002    2    0    2.51302E-03   144.700     0.000     0.000     0.000   106.764    56.498    83.246    58.920     2.224     3.023     0.151     2.135     0.000     0.000   816.951  2000.199    56.655    56.655     0.000    74.508     0.000   131.208    87.982    26.895    29.579    24.211    25.469    16.480     0.057     0.078     0.000     0.000     0.000     0.000     0.000     0.000     0.000     0.000     0.000     0.000     0.229     0.947    -0.710     0.196     0.162    -0.176     0.218     0.000     3.598     0.896     0.323     0.041     0.033     0.003     0.095     0.014     0.000     0.011     0.000     0.000     0.087     3.754     0.000     1.463     3.219     0.002 .00000E+00 .00000E+00 0.178E-05 0.404E+04 0.000E+00 0.000E+00 0.000E+00 0.000E+00 0.000E+00 0.948E-01     0.044    74.508     0.000
FRSE    4 000030001    3    0    2.42478E-01   144.700     0.000     0.000     0.000   106.802    68.513    80.242    47.575     5.129     9.661     0.483     2.136     0.000     0.000  1002.146  2001.047    42.253    42.253     0.000    86.967     7.585   137.078    82.151    26.895    29.579    24.211    25.637    16.480     4.104     3.217     0.000     0.000     0.000     0.000     0.000     0.000     0.000     0.000     0.000     0.000     0.007     0.889    -0.752     0.001     0.152    -0.601     0.029     0.000     4.828     1.171     6.455     0.789     0.630     0.000     0.120     0.167     0.001     0.002     0.000     0.000     0.034     0.961     0.000     2.292     5.000     0.019 .00000E+00 .00000E+00 0.135E-05 0.404E+04 0.000E+00 0.000E+00 0.000E+00 0.000E+00 0.000E+00 0.120E+00     0.273    86.967     0.000
FRSE    5 000040001    4    0    2.64229E-01   144.700     0.000     0.000     0.000   106.788    68.504    80.242    47.581     3.710     6.579     0.329     2.136     0.000     0.000   955.156  2000.653    42.253    42.253     0.000    88.570     0.000   130.990    82.151    26.895    29.579    24.211    25.637    16.480     5.282     0.400     0.000     0.000     0.000     0.000     0.000     0.000     0.000     0.000     0.000     0.000     0.006     0.890    -0.745     0.001     0.152    -0.603     0.036     0.000     5.447     1.206     6.768     0.827     0.663     0.000     0.121     0.114     0.000     0.002     0.000     0.000     0.034     0.471     0.000     2.367     5.000     0.019 .00000E+00 .00000E+00 0.129E-05 0.404E+04 0.000E+00 0.000E+00 0.000E+00 0.000E+00 0.000E+00 0.121E+00     0.167    88.570     0.000
FRSD    6 000040002    4    0    2.38989E-02   144.700     0.000     0.000     0.000   106.788    56.164    83.285    59.260     8.492    16.753     0.838     2.136     0.000     0.000  1003.522  2001.800    56.656    56.656     0.000    67.468    14.805   139.400    87.989    26.895    29.579    24.211    25.472    16.480     0.028     0.008     0.000     0.000     0.000     0.000     0.000     0.000     0.000     0.000     0.000     0.000     0.228     0.942    -0.745     0.192     0.161    -0.181     0.170     0.000     3.150     0.802     0.191     0.024     0.019     0.002     0.093     0.131     0.001     0.011     0.000     0.000     0.087     5.106     0.000     1.307     3.062     0.002 .00000E+00 .00000E+00 0.311E-05 0.404E+04 0.000E+00 0.000E+00 0.000E+00 0.000E+00 0.000E+00 0.928E-01     0.471    67.468     0.000
FRSE    7 000050001    5    0    2.48223E-02   144.700     0.000     0.000     0.000   106.699    70.186   148.152   114.500    50.405   114.851     5.743     2.134     0.000     0.000  1044.343  2015.683    19.967    19.967     0.000    68.125   110.258   202.657    71.547    26.895    29.579    24.211    24.975    16.480     0.559     0.598     0.000     0.000     0.000     0.000     0.000     0.000     0.000     0.000     0.000     0.000     0.013     1.437    -1.194     0.003     0.246    -0.575    -0.087     0.000     3.791     1.031     3.525     0.431     0.314     0.000     0.055     0.532     0.045     0.003     0.000     0.000     0.034     2.933     0.000     2.014     5.000     0.016 .00000E+00 .00000E+00 0.000E+00 0.444E+04 0.000E+00 0.000E+00 0.000E+00 0.000E+00 0.000E+00 0.554E-01     4.307    68.125     0.000
FRSE    8 000050002    5    0    2.39091E-01   144.700     0.000     0.000     0.000   106.699    68.446    80.254    47.628     3.237     5.561     0.278     2.134     0.000     0.000   924.464  2000.529    42.255    42.255     0.000    89.111     0.000   131.499    82.154    26.895    29.579    24.211    25.637    16.480     5.395     6.725     0.000     0.000     0.000     0.000     0.000     0.000     0.000     0.000     0.000     0.000     0.006     0.891    -0.742     0.001     0.152    -0.603     0.039     0.000     5.672     1.215     6.857     0.838     0.672     0.000     0.121     0.094     0.000     0.002     0.000     0.000     0.034     0.350     0.000     2.385     5.000     0.019 .00000E+00 .00000E+00 0.129E-05 0.404E+04 0.000E+00 0.000E+00 0.000E+00 0.000E+00 0.000E+00 0.121E+00     0.133    89.111     0.000
FRSD    9 000050003    5    0    2.41041E-03   144.700     0.000     0.000     0.000   106.699    58.969   150.958   124.798    17.518    37.824     1.891     2.134     0.000     0.000  1013.645  2004.456    36.049    36.049     0.000    81.265    35.154   153.657    81.298    26.895    29.579    24.211    24.621    16.480     0.007     0.009     0.000     0.000     0.000     0.000     0.000     0.000     0.000     0.000     0.000     0.000     0.344     1.474    -1.142     0.245     0.252    -0.223     0.192     0.000     5.398     1.116     0.059     0.008     0.005     0.002     0.092     0.244     0.004     0.012     0.000     0.000     0.087     0.854     0.000     1.851     3.546     0.003 .00000E+00 .00000E+00 0.000E+00 0.444E+04 0.000E+00 0.000E+00 0.000E+00 0.000E+00 0.000E+00 0.922E-01     1.190    81.265     0.000
FRSD   10 000050004    5    0    2.10260E-03   144.700     0.000     0.000     0.000   106.699    56.278    83.280    59.123     5.893    11.090     0.554     2.134     0.000     0.000  1003.236  2001.093    56.659    56.659     0.000    70.406     6.605   133.950    87.988    26.895    29.579    24.211    25.468    16.480     0.021     0.047     0.000     0.000     0.000     0.000     0.000     0.000     0.000     0.000     0.000     0.000     0.233     0.949    -0.741     0.198     0.162    -0.187     0.177     0.000     3.369     0.849     0.153     0.019     0.015     0.003     0.096     0.083     0.000     0.012     0.000     0.000     0.087     4.425     0.000     1.385     3.142     0.002 .00000E+00 .00000E+00 0.286E-05 0.404E+04 0.000E+00 0.000E+00 0.000E+00 0.000E+00 0.000E+00 0.963E-01     0.280    70.406     0.000
FRSD   11 000050005    5    0    2.10260E-03   144.700     0.000     0.000     0.000   106.699    58.880   150.964   124.904    51.291   113.485     5.674     2.134     0.000     0.000  1052.743  2014.614    57.417    57.417     0.000    23.140   108.564   193.094    88.905    26.895    29.579    24.211    24.627    16.480     0.000     0.002     0.000     0.000     0.000     0.000     0.000     0.000     0.000     0.000     0.000     0.000     0.335     1.472    -1.168     0.236     0.252    -0.304     0.092     0.000     4.631     1.049     0.000     0.000     0.000     0.003     0.034     0.610     0.037     0.019     0.000     0.000     0.087     1.735     0.000     1.729     3.453     0.002 .00000E+00 .00000E+00 0.693E-05 0.444E+04 0.000E+00 0.000E+00 0.000E+00 0.000E+00 0.000E+00 0.336E-01     3.974    23.140     0.000
FRSD   12 000050006    5    0    2.10260E-03   144.700     0.000     0.000     0.000   106.699    58.812   150.970   124.983    62.398   139.197     6.960     2.134     0.000     0.000  1064.165  2018.206    57.416    57.453     0.000    10.131   133.771   206.320    88.905    26.895    29.579    24.211    24.631    16.480     0.000     0.001     0.000     0.000     0.000     0.000     0.000     0.000     0.000     0.000     0.000     0.000     0.330     1.469    -1.170     0.231     0.251    -0.316     0.069     0.000     4.323     1.009     0.000     0.000     0.000     0.003     0.015     0.684     0.052     0.018     0.000     0.000     0.087     2.254     0.000     1.660     3.396     0.002 .00000E+00 .00000E+00 0.704E-05 0.444E+04 0.000E+00 0.000E+00 0.000E+00 0.000E+00 0.000E+00 0.147E-01     4.965    10.131     0.000
FRSE   13 000060001    6    0    2.85160E-02   144.700     0.000     0.000     0.000   106.690    70.177   148.154   114.509    53.010   121.010     6.051     2.134     0.000     0.000  1046.829  2016.555    19.967    19.967     0.000    64.857   116.284   205.659    71.548    26.895    29.579    24.211    24.976    16.480     0.530     0.789     0.000     0.000     0.000     0.000     0.000     0.000     0.000     0.000     0.000     0.000     0.012     1.438    -1.195     0.002     0.246    -0.569    -0.094     0.000     3.664     1.008     3.459     0.422     0.308     0.000     0.052     0.534     0.047     0.003     0.000     0.000     0.034     3.270     0.000     1.968     5.000     0.016 .00000E+00 .00000E+00 0.000E+00 0.444E+04 0.000E+00 0.000E+00 0.000E+00 0.000E+00 0.000E+00 0.516E-01     4.550    64.857     0.000
FRSE   14 000060002    6    0    2.76542E-01   144.700     0.000     0.000     0.000   106.690    68.432    80.266    47.644     8.667    17.481     0.874     2.134     0.000     0.000  1001.151  2002.072    42.256    42.256     0.000    82.981    15.834   141.623    82.156    26.895    29.579    24.211    25.641    16.480     3.045     0.386     0.000     0.000     0.000     0.000     0.000     0.000     0.000     0.000     0.000     0.000     0.007     0.889    -0.761     0.002     0.152    -0.556     0.016     0.000     3.650     1.019     5.956     0.728     0.580     0.000     0.107     0.238     0.002     0.002     0.000     0.000     0.034     3.104     0.000     1.985     5.000     0.016 .00000E+00 .00000E+00 0.153E-05 0.404E+04 0.000E+00 0.000E+00 0.000E+00 0.000E+00 0.000E+00 0.107E+00     0.553    82.981     0.000
FRSE   15 000060003    6    0    2.10261E-03   144.700     0.000     0.000     0.000   106.690    70.156   148.162   114.532    75.323   170.730     8.536     2.134     0.000     0.000  1069.773  2023.613    43.104    43.136     0.000    10.981   165.082   225.701    83.933    26.895    29.579    24.211    24.981    16.480     0.411     0.442     0.000     0.000     0.000     0.000     0.000     0.000     0.000     0.000     0.000     0.000     0.012     1.441    -1.201     0.002     0.246    -0.566    -0.136     0.000     3.266     0.926     3.187     0.389     0.277     0.000     0.010     0.641     0.080     0.007     0.000     0.000     0.034     4.503     0.000     1.807     5.000     0.015 .00000E+00 .00000E+00 0.204E-05 0.444E+04 0.000E+00 0.000E+00 0.000E+00 0.000E+00 0.000E+00 0.103E-01     6.503    10.981     0.000
FRSE   16 000060004    6    0    2.10261E-03   144.700     0.000     0.000     0.000   106.690    70.178   148.154   114.508    62.798   141.412     7.071     2.134     0.000     0.000  1051.131  2019.397    43.104    43.104     0.000    25.938   136.277   210.653    83.932    26.895    29.579    24.211    24.976    16.480     0.370     0.679     0.000     0.000     0.000     0.000     0.000     0.000     0.000     0.000     0.000     0.000     0.013     1.443    -1.200     0.003     0.247    -0.589    -0.120     0.000     3.696     1.014     2.919     0.357     0.253     0.000     0.026     0.635     0.065     0.008     0.000     0.000     0.034     3.187     0.000     1.980     5.000     0.016 .00000E+00 .00000E+00 0.204E-05 0.444E+04 0.000E+00 0.000E+00 0.000E+00 0.000E+00 0.000E+00 0.255E-01     5.333    25.938     0.000
FRSE   17 000070001    7    0    2.42478E-01   144.700     0.000     0.000     0.000   106.724    68.461    80.256    47.618     6.379    12.400     0.620     2.134     0.000     0.000  1002.872  2001.398    42.255    42.255     0.000    85.563    10.239   138.427    82.154    26.895    29.579    24.211    25.638    16.480     3.544     0.424     0.000     0.000     0.000     0.000     0.000     0.000     0.000     0.000     0.000     0.000     0.007     0.889    -0.756     0.002     0.152    -0.591     0.024     0.000     4.353     1.125     6.235     0.762     0.608     0.000     0.117     0.201     0.001     0.002     0.000     0.000     0.034     1.597     0.000     2.198     5.000     0.018 .00000E+00 .00000E+00 0.142E-05 0.404E+04 0.000E+00 0.000E+00 0.000E+00 0.000E+00 0.000E+00 0.117E+00     0.370    85.563     0.000
FRSD   18 000070002    7    0    2.14364E-02   144.700     0.000     0.000     0.000   106.724    56.231    83.283    59.179     6.830    13.121     0.656     2.134     0.000     0.000  1004.162  2001.342    56.658    56.658     0.000    69.346    10.385   136.736    87.988    26.895    29.579    24.211    25.470    16.480     0.030     0.030     0.000     0.000     0.000     0.000     0.000     0.000     0.000     0.000     0.000     0.000     0.230     0.944    -0.741     0.196     0.161    -0.182     0.179     0.000     3.281     0.831     0.201     0.026     0.020     0.002     0.095     0.101     0.000     0.011     0.000     0.000     0.087     4.692     0.000     1.355     3.111     0.002 .00000E+00 .00000E+00 0.296E-05 0.404E+04 0.000E+00 0.000E+00 0.000E+00 0.000E+00 0.000E+00 0.949E-01     0.348    69.346     0.000
FRSE   19 000080001    8    0    2.10260E-03   144.700     0.000     0.000     0.000   106.694    60.236    82.157    55.868    80.378   184.029     9.201     2.134     0.000     0.000  1077.512  2025.764    42.255    42.696     0.000     4.032   178.812   232.650    82.654    26.895    29.579    24.211    25.709    16.480     0.171     0.052     0.000     0.000     0.000     0.000     0.000     0.000     0.000     0.000     0.000     0.000     0.005     0.935    -0.819     0.001     0.160    -0.340    -0.195     0.000     1.122     0.361     1.699     0.207     0.150     0.000     0.003     0.313     0.048     0.008     0.000     0.000     0.034    13.773     0.000     0.711     3.223     0.006 .00000E+00 .00000E+00 0.176E-05 0.404E+04 0.000E+00 0.000E+00 0.000E+00 0.000E+00 0.000E+00 0.279E-02     7.110     4.032     0.000
FRSE   20 000080002    8    0    2.33859E-01   144.700     0.000     0.000     0.000   106.694    68.441    80.260    47.632     5.333    10.105     0.505     2.134     0.000     0.000  1001.210  2001.100    42.256    42.256     0.000    86.746     8.407   137.697    82.155    26.895    29.579    24.211    25.638    16.480     3.895     1.425     0.000     0.000     0.000     0.000     0.000     0.000     0.000     0.000     0.000     0.000     0.007     0.890    -0.753     0.001     0.152    -0.600     0.028     0.000     4.748     1.165     6.396     0.781     0.624     0.000     0.120     0.173     0.001     0.002     0.000     0.000     0.034     1.044     0.000     2.279     5.000     0.019 .00000E+00 .00000E+00 0.138E-05 0.404E+04 0.000E+00 0.000E+00 0.000E+00 0.000E+00 0.000E+00 0.120E+00     0.289    86.746     0.000
BARR   21 000080003    8    0    2.51302E-03   144.700     0.000     0.000     0.000   106.694    42.941    85.640    73.072     1.137     0.568     0.028     2.134     0.000     0.000   781.573  2000.047    96.972    96.972     0.000    25.368     0.000   122.349    96.296    26.895    29.579    24.211    25.773    16.480     5.018     6.071     0.000     0.000     0.000     0.000     0.000     0.000     0.000     0.000     0.000     0.000     0.000     0.933    -0.754     0.000     0.159     0.148     0.182     0.000     0.003     0.000     4.207     0.513     0.432     0.003     0.276     0.519     0.000     0.003     0.000     5.006     0.092     0.000     5.284     0.000     0.000     0.000 .00000E+00 .00000E+00 0.162E+01 0.404E+04 0.000E+00 0.000E+00 0.000E+00 0.000E+00 0.000E+00 0.276E+00     0.009    25.368     0.000
FRSD   22 000080004    8    0    2.20521E-03   144.700     0.000     0.000     0.000   106.694    56.321    83.275    59.078     4.982     9.115     0.456     2.134     0.000     0.000   988.030  2000.856    56.659    56.659     0.000    71.430     0.000   128.304    87.987    26.895    29.579    24.211    25.468    16.480     0.026     0.045     0.000     0.000     0.000     0.000     0.000     0.000     0.000     0.000     0.000     0.000     0.233     0.947    -0.735     0.200     0.162    -0.183     0.188     0.000     3.434     0.863     0.176     0.022     0.017     0.003     0.097     0.065     0.000     0.012     0.000     0.000     0.087     4.237     0.000     1.408     3.164     0.002 .00000E+00 .00000E+00 0.265E-05 0.404E+04 0.000E+00 0.000E+00 0.000E+00 0.000E+00 0.000E+00 0.965E-01     0.216    71.430     0.000
FRSE   23 000090001    9    0    2.10671E-01   144.700     0.000     0.000     0.000   106.655    70.135   148.167   114.548    62.385   143.210     7.161     2.133     0.000     0.000  1052.466  2019.733    19.968    19.968     0.000    55.442   138.101   218.941    71.550    26.895    29.579    24.211    24.981    16.480     0.519     0.753     0.000     0.000     0.000     0.000     0.000     0.000     0.000     0.000     0.000     0.000     0.011     1.438    -1.196     0.002     0.246    -0.548    -0.110     0.000     3.286     0.930     3.421     0.418     0.303     0.000     0.042     0.539     0.058     0.003     0.000     0.000     0.034     4.437     0.000     1.816     5.000     0.015 .00000E+00 .00000E+00 0.000E+00 0.444E+04 0.000E+00 0.000E+00 0.000E+00 0.000E+00 0.000E+00 0.415E-01     5.430    55.442     0.000
FRSE   24 000090002    9    0    2.10773E-01   144.700     0.000     0.000     0.000   106.655    68.415    80.268    47.654     6.380    12.402     0.620     2.133     0.000     0.000  1002.874  2001.398    42.257    42.257     0.000    85.567    10.240   138.434    82.157    26.895    29.579    24.211    25.638    16.480     3.007     1.091     0.000     0.000     0.000     0.000     0.000     0.000     0.000     0.000     0.000     0.000     0.007     0.891    -0.757     0.002     0.152    -0.593     0.023     0.000     4.360     1.126     6.086     0.744     0.592     0.000     0.117     0.201     0.001     0.002     0.000     0.000     0.034     1.587     0.000     2.199     5.000     0.018 .00000E+00 .00000E+00 0.144E-05 0.404E+04 0.000E+00 0.000E+00 0.000E+00 0.000E+00 0.000E+00 0.117E+00     0.370    85.567     0.000
FRSD   25 000090003    9    0    2.20520E-03   144.700     0.000     0.000     0.000   106.655    56.410    83.267    58.986     2.782     4.299     0.215     2.133     0.000     0.000   855.233  2000.310    56.659    56.659     0.000    73.898     0.000   130.629    87.985    26.895    29.579    24.211    25.467    16.480     0.039     0.013     0.000     0.000     0.000     0.000     0.000     0.000     0.000     0.000     0.000     0.000     0.232     0.948    -0.717     0.200     0.162    -0.178     0.210     0.000     3.590     0.895     0.231     0.030     0.023     0.003     0.096     0.023     0.000     0.011     0.000     0.000     0.087     3.776     0.000     1.460     3.216     0.002 .00000E+00 .00000E+00 0.194E-05 0.404E+04 0.000E+00 0.000E+00 0.000E+00 0.000E+00 0.000E+00 0.959E-01     0.072    73.898     0.000
FRSE   26 000100001   10    0    2.69768E-02   144.700     0.000     0.000     0.000   106.636    70.118   148.171   114.563    63.852   146.688     7.334     2.133     0.000     0.000  1054.986  2020.235    19.968    19.968     0.000    53.523   141.509   220.568    71.551    26.895    29.579    24.211    24.981    16.480     0.457     0.698     0.000     0.000     0.000     0.000     0.000     0.000     0.000     0.000     0.000     0.000     0.012     1.439    -1.198     0.002     0.246    -0.546    -0.116     0.000     3.240     0.920     3.273     0.400     0.288     0.000     0.040     0.540     0.059     0.003     0.000     0.000     0.034     4.591     0.000     1.796     5.000     0.015 .00000E+00 .00000E+00 0.000E+00 0.444E+04 0.000E+00 0.000E+00 0.000E+00 0.000E+00 0.000E+00 0.398E-01     5.568    53.523     0.000
FRSE   27 000100002   10    0    2.24624E-02   144.700     0.000     0.000     0.000   106.636    68.404    80.266    47.661     3.558     6.250     0.313     2.133     0.000     0.000   944.751  2000.611    42.257    42.257     0.000    88.753     0.000   131.166    82.157    26.895    29.579    24.211    25.637    16.480     3.665     3.975     0.000     0.000     0.000     0.000     0.000     0.000     0.000     0.000     0.000     0.000     0.007     0.894    -0.746     0.002     0.153    -0.607     0.037     0.000     5.534     1.209     6.506     0.795     0.634     0.000     0.122     0.108     0.000     0.002     0.000     0.000     0.034     0.429     0.000     2.373     5.000     0.019 .00000E+00 .00000E+00 0.131E-05 0.404E+04 0.000E+00 0.000E+00 0.000E+00 0.000E+00 0.000E+00 0.122E+00     0.156    88.753     0.000
FRSE   28 000100003   10    0    2.82080E-03   144.700     0.000     0.000     0.000   106.636    70.123   148.170   114.558    73.538   166.543     8.327     2.133     0.000     0.000  1067.292  2023.006    43.105    43.125     0.000    14.117   160.963   224.539    83.934    26.895    29.579    24.211    24.981    16.480     0.798     2.005     0.000     0.000     0.000     0.000     0.000     0.000     0.000     0.000     0.000     0.000     0.011     1.430    -1.192     0.002     0.244    -0.561    -0.112     0.000     3.289     0.931     4.447     0.543     0.403     0.000     0.013     0.635     0.077     0.005     0.000     0.000     0.034     4.424     0.000     1.817     5.000     0.015 .00000E+00 .00000E+00 0.206E-05 0.444E+04 0.000E+00 0.000E+00 0.000E+00 0.000E+00 0.000E+00 0.132E-01     6.335    14.117     0.000
FRSE   29 000100004   10    0    2.51300E-03   144.700     0.000     0.000     0.000   106.636    70.123   148.170   114.558    73.664   166.838     8.342     2.133     0.000     0.000  1067.404  2023.052    43.105    43.125     0.000    13.896   161.253   224.621    83.934    26.895    29.579    24.211    24.981    16.480     0.734     1.952     0.000     0.000     0.000     0.000     0.000     0.000     0.000     0.000     0.000     0.000     0.011     1.432    -1.193     0.002     0.245    -0.561    -0.114     0.000     3.289     0.931     4.287     0.524     0.386     0.000     0.013     0.635     0.078     0.005     0.000     0.000     0.034     4.424     0.000     1.817     5.000     0.015 .00000E+00 .00000E+00 0.206E-05 0.444E+04 0.000E+00 0.000E+00 0.000E+00 0.000E+00 0.000E+00 0.130E-01     6.347    13.896     0.000
SWCH   30 000110001   11    0    2.92344E-03   144.700     0.000     0.000     0.000   106.635    73.627   148.552   109.830    46.367   107.461     5.373     2.133     0.000     0.000  1054.072  2014.258    25.264    25.264     0.000    68.016   104.630   201.809    75.209    26.895    29.579    24.211    24.605    16.480     0.010     0.010     0.000     0.000   117.919     0.000     0.000     0.000     0.000     0.000     0.000     0.000     3.144     1.599    -0.867     0.828     0.274    -0.576     0.447     0.000    37.612     3.316     0.116     0.015     0.008     0.005     0.225     1.006     0.059     0.011     0.000     0.000     0.092     3.228     0.000     2.477     4.803     0.003 .00000E+00 .00000E+00 0.000E+00 0.444E+04 0.000E+00 0.000E+00 0.000E+00 0.000E+00 0.000E+00 0.225E+00     3.898    68.016     0.000
FRSE   31 000110002   11    0    2.20521E-03   144.700     0.000     0.000     0.000   106.635    69.522   148.405   115.190   103.861   240.894    12.045     2.133     0.000     0.000  1114.310  2033.799    19.989    20.185     0.000     2.536   233.957   266.005    71.592    26.895    29.579    24.211    25.000    16.480     0.032     0.176     0.000     0.000     0.000     0.000     0.000     0.000     0.000     0.000     0.000     0.000     0.011     1.459    -1.218     0.002     0.249    -0.511    -0.216     0.000     2.470     0.731     0.388     0.047     0.031     0.000     0.002     0.566     0.102     0.005     0.000     0.000     0.034     7.552     0.000     1.432     4.887     0.012 .00000E+00 .00000E+00 0.000E+00 0.444E+04 0.000E+00 0.000E+00 0.000E+00 0.000E+00 0.000E+00 0.175E-02     9.327     2.536     0.000
FRSE   32 000110003   11    0    2.72849E-02   144.700     0.000     0.000     0.000   106.635    70.124   148.169   114.556    61.590   141.324     7.066     2.133     0.000     0.000  1051.076  2019.464    19.968    19.968     0.000    56.486   136.251   218.060    71.550    26.895    29.579    24.211    24.980    16.480     0.516     0.784     0.000     0.000     0.000     0.000     0.000     0.000     0.000     0.000     0.000     0.000     0.012     1.438    -1.196     0.002     0.246    -0.550    -0.109     0.000     3.314     0.936     3.417     0.417     0.303     0.000     0.043     0.538     0.057     0.003     0.000     0.000     0.034     4.343     0.000     1.828     5.000     0.015 .00000E+00 .00000E+00 0.000E+00 0.444E+04 0.000E+00 0.000E+00 0.000E+00 0.000E+00 0.000E+00 0.425E-01     5.355    56.486     0.000
FRSE   33 000110004   11    0    2.11799E-01   144.700     0.000     0.000     0.000   106.635    68.375    80.283    47.696    10.959    22.611     1.131     2.133     0.000     0.000  1003.692  2002.764    42.257    42.257     0.000    80.397    20.770   144.166    82.161    26.895    29.579    24.211    25.646    16.480     2.028     0.908     0.000     0.000     0.000     0.000     0.000     0.000     0.000     0.000     0.000     0.000     0.007     0.892    -0.768     0.002     0.152    -0.513     0.011     0.000     3.134     0.911     5.484     0.670     0.531     0.000     0.097     0.256     0.003     0.002     0.000     0.000     0.034     4.684     0.000     1.773     5.000     0.014 .00000E+00 .00000E+00 0.164E-05 0.404E+04 0.000E+00 0.000E+00 0.000E+00 0.000E+00 0.000E+00 0.974E-01     0.742    80.397     0.000
FRSE   34 000110005   11    0    2.10261E-03   144.700     0.000     0.000     0.000   106.635    70.110   148.237   114.591    80.736   182.721     9.136     2.133     0.000     0.000  1077.108  2025.330    43.132    43.669     0.000     2.234   176.824   229.706    83.940    26.895    29.579    24.211    24.983    16.480     0.065     0.101     0.000     0.000     0.000     0.000     0.000     0.000     0.000     0.000     0.000     0.000     0.013     1.457    -1.214     0.003     0.249    -0.574    -0.181     0.000     3.174     0.904     0.758     0.093     0.062     0.000     0.002     0.654     0.087     0.012     0.000     0.000     0.034     4.828     0.000     1.766     4.999     0.014 .00000E+00 .00000E+00 0.206E-05 0.444E+04 0.000E+00 0.000E+00 0.000E+00 0.000E+00 0.000E+00 0.216E-02     6.979     2.234     0.000
FRSE   35 000110006   11    0    2.71823E-03   144.700     0.000     0.000     0.000   106.635    70.118   148.186   114.578    76.387   173.180     8.659     2.133     0.000     0.000  1071.239  2023.963    43.107    43.152     0.000     9.147   167.487   226.386    83.935    26.895    29.579    24.211    24.982    16.480     0.388     0.144     0.000     0.000     0.000     0.000     0.000     0.000     0.000     0.000     0.000     0.000     0.012     1.441    -1.201     0.002     0.246    -0.565    -0.139     0.000     3.239     0.919     3.054     0.373     0.265     0.000     0.009     0.642     0.081     0.007     0.000     0.000     0.034     4.597     0.000     1.795     5.000     0.015 .00000E+00 .00000E+00 0.206E-05 0.444E+04 0.000E+00 0.000E+00 0.000E+00 0.000E+00 0.000E+00 0.856E-02     6.600     9.147     0.000
FRSD   36 000110007   11    0    2.25651E-02   144.700     0.000     0.000     0.000   106.635    58.762   150.981   125.033    44.717   101.454     5.073     2.133     0.000     0.000  1046.250  2013.225    36.049    36.049     0.000    55.863    97.344   192.859    81.301    26.895    29.579    24.211    24.634    16.480     0.006     0.008     0.000     0.000     0.000     0.000     0.000     0.000     0.000     0.000     0.000     0.000     0.325     1.467    -1.165     0.228     0.251    -0.273     0.111     0.000     4.274     1.003     0.052     0.007     0.005     0.001     0.061     0.485     0.027     0.011     0.000     0.000     0.087     2.344     0.000     1.648     3.386     0.002 .00000E+00 .00000E+00 0.106E-05 0.444E+04 0.000E+00 0.000E+00 0.000E+00 0.000E+00 0.000E+00 0.614E-01     3.602    55.863     0.000
FRSD   37 000110008   11    0    2.15391E-02   144.700     0.000     0.000     0.000   106.635    56.028    83.313    59.376     8.982    17.825     0.891     2.133     0.000     0.000  1003.514  2001.938    56.660    56.660     0.000    66.930    15.882   139.980    87.994    26.895    29.579    24.211    25.472    16.480     0.024     0.016     0.000     0.000     0.000     0.000     0.000     0.000     0.000     0.000     0.000     0.000     0.228     0.945    -0.748     0.191     0.161    -0.183     0.164     0.000     3.119     0.795     0.171     0.022     0.017     0.002     0.092     0.140     0.001     0.012     0.000     0.000     0.087     5.210     0.000     1.296     3.050     0.002 .00000E+00 .00000E+00 0.321E-05 0.404E+04 0.000E+00 0.000E+00 0.000E+00 0.000E+00 0.000E+00 0.924E-01     0.508    66.930     0.000
FRSD   38 000110009   11    0    2.20521E-03   144.700     0.000     0.000     0.000   106.635    58.740   151.043   125.068    67.968   151.546     7.577     2.133     0.000     0.000  1067.186  2019.933    57.444    59.025     0.000     1.128   145.865   211.458    88.910    26.895    29.579    24.211    24.632    16.480     0.000     0.001     0.000     0.000     0.000     0.000     0.000     0.000     0.000     0.000     0.000     0.000     0.330     1.480    -1.179     0.230     0.253    -0.345     0.040     0.000     4.228     0.996     0.000     0.000     0.000     0.003     0.002     0.724     0.061     0.021     0.000     0.000     0.087     2.433     0.000     1.636     3.376     0.002 .00000E+00 .00000E+00 0.721E-05 0.444E+04 0.000E+00 0.000E+00 0.000E+00 0.000E+00 0.000E+00 0.172E-02     5.441     1.128     0.000
FRSD   39 000110010   11    0    2.12312E-02   144.700     0.000     0.000     0.000   106.635    58.764   150.980   125.023    62.564   139.576     6.979     2.133     0.000     0.000  1064.333  2018.264    57.417    57.457     0.000     9.851   134.141   206.429    88.906    26.895    29.579    24.211    24.631    16.480     0.005     0.003     0.000     0.000     0.000     0.000     0.000     0.000     0.000     0.000     0.000     0.000     0.329     1.466    -1.168     0.231     0.251    -0.312     0.073     0.000     4.308     1.007     0.046     0.006     0.004     0.003     0.014     0.684     0.052     0.017     0.000     0.000     0.087     2.281     0.000     1.656     3.393     0.002 .00000E+00 .00000E+00 0.709E-05 0.444E+04 0.000E+00 0.000E+00 0.000E+00 0.000E+00 0.000E+00 0.143E-01     4.980     9.851     0.000
FRSD   40 000110011   11    0    2.10261E-03   144.700     0.000     0.000     0.000   106.635    56.191    83.295    59.204     6.632    12.691     0.635     2.133     0.000     0.000  1003.988  2001.292    56.660    56.660     0.000    69.579     9.686   136.258    87.990    26.895    29.579    24.211    25.469    16.480     0.020     0.025     0.000     0.000     0.000     0.000     0.000     0.000     0.000     0.000     0.000     0.000     0.232     0.949    -0.744     0.197     0.162    -0.188     0.171     0.000     3.312     0.837     0.144     0.018     0.014     0.003     0.096     0.097     0.000     0.013     0.000     0.000     0.087     4.600     0.000     1.365     3.122     0.002 .00000E+00 .00000E+00 0.296E-05 0.404E+04 0.000E+00 0.341E+04 0.121E+06 0.000E+00 0.000E+00 0.958E-01     0.333    69.579     0.000
FRSE    1 000010001    1    0    3.72643E-01    93.800     0.000     0.000     0.000   115.361    83.597    27.901    18.570     0.000     3.072     0.154     2.307     0.000     0.000   953.175  2000.599     0.000     0.000     0.000    39.200     0.000    39.397    66.090    26.877    29.777    23.977    25.003    16.583     0.000     0.000     0.000     0.000     0.000     0.000     0.000     0.000     0.000     0.000     0.000     0.000     0.005     0.698    -0.824     0.001     0.119    -0.449    -0.494     0.000     0.703     0.219     0.000     0.000     0.000     0.000     0.000     0.000     0.000     0.000     0.000     1.070     0.047     3.533     0.000     5.661     5.000     2.608 .00000E+00 .00000E+00 0.239E+01 0.404E+04 0.000E+00 0.000E+00 0.000E+00 0.000E+00 0.000E+00 0.358E-03     0.197    39.200     0.000
FRSE    2 000020001    2    0    3.84237E-01    93.800     0.000     0.000     0.000   115.334    83.837    28.109    18.997     0.000     3.553     0.178     2.307     0.000     0.000   984.490  2000.716     0.000     0.000     0.000    38.544     0.000    38.779    66.186    26.877    29.777    23.977    25.012    16.583     0.000     0.000     0.000     0.000     0.000     0.000     0.000     0.000     0.000     0.000     0.000     0.000     0.005     0.701    -0.826     0.001     0.120    -0.434    -0.488     0.000     0.705     0.207     0.000     0.000     0.000     0.000     0.000     0.000     0.000     0.000     0.000     1.009     0.047     4.097     0.000     5.572     5.000     2.567 .00000E+00 .00000E+00 0.239E+01 0.404E+04 0.000E+00 0.000E+00 0.000E+00 0.000E+00 0.000E+00 0.403E-03     0.236    38.544     0.000
FRSD    3 000020002    2    0    3.51302E-03    93.800     0.000     0.000     0.000   115.334    82.081    41.302    30.229     0.000     1.461     0.073     2.307     0.000     0.000   816.032  2000.206     0.203     0.203     0.000    40.189     0.000    40.458    79.381    26.877    29.777    23.977    25.326    16.583     0.000     0.002     0.000     0.000     0.000     0.000     0.000     0.000     0.000     0.000     0.000     0.000     0.188     0.802    -0.786     0.162     0.137    -0.355    -0.239     0.000     0.950     0.459     0.000     0.000     0.000     0.000     0.002     0.000     0.000     0.000     0.000     0.000     0.120    13.271     0.000     3.535     4.608     0.205 .00000E+00 .00000E+00 0.240E+01 0.404E+04 0.000E+00 0.000E+00 0.000E+00 0.000E+00 0.000E+00 0.160E-02     0.066    40.189     0.000
FRSE    4 000030001    3    0    3.42478E-01    93.800     0.000     0.000     0.000   115.381    84.391    28.426    19.681     0.000     4.543     0.227     2.308     0.000     0.000   999.995  2000.957     0.000     0.000     0.000    37.287     4.160    41.764    66.333    26.877    29.777    23.977    25.027    16.583     0.000     0.000     0.000     0.000     0.000     0.000     0.000     0.000     0.000     0.000     0.000     0.000     0.005     0.706    -0.832     0.001     0.120    -0.401    -0.473     0.000     0.710     0.183     0.000     0.000     0.000     0.000     0.000     0.000     0.000     0.000     0.000     0.880     0.047     5.319     0.000     5.372     5.000     2.475 .00000E+00 .00000E+00 0.239E+01 0.404E+04 0.000E+00 0.000E+00 0.000E+00 0.000E+00 0.000E+00 0.481E-03     0.317    37.287     0.000
FRSE    5 000040001    4    0    3.64229E-01    93.800     0.000     0.000     0.000   115.364    83.617    27.916    18.604     0.000     3.111     0.156     2.307     0.000     0.000   955.805  2000.609     0.000     0.000     0.000    39.144     0.000    39.344    66.096    26.877    29.777    23.977    25.004    16.583     0.000     0.000     0.000     0.000     0.000     0.000     0.000     0.000     0.000     0.000     0.000     0.000     0.005     0.699    -0.824     0.001     0.119    -0.448    -0.494     0.000     0.703     0.218     0.000     0.000     0.000     0.000     0.000     0.000     0.000     0.000     0.000     1.066     0.047     3.577     0.000     5.654     5.000     2.605 .00000E+00 .00000E+00 0.239E+01 0.404E+04 0.000E+00 0.000E+00 0.000E+00 0.000E+00 0.000E+00 0.363E-03     0.200    39.144     0.000
FRSD    6 000040002    4    0    3.38989E-02    93.800     0.000     0.000     0.000   115.364    82.365    44.759    38.338     0.000     7.813     0.391     2.307     0.000     0.000  1000.000  2001.645     0.501     0.501     0.000    31.844     8.638    41.527    80.415    26.877    29.777    23.977    25.391    16.583     0.000     0.000     0.000     0.000     0.000     0.000     0.000     0.000     0.000     0.000     0.000     0.000     0.188     0.831    -0.825     0.158     0.142    -0.311    -0.228     0.000     0.977     0.442     0.000     0.000     0.000     0.000     0.002     0.000     0.000     0.000     0.000     0.000     0.120    14.194     0.000     3.254     4.419     0.189 .00000E+00 .00000E+00 0.240E+01 0.404E+04 0.000E+00 0.000E+00 0.000E+00 0.000E+00 0.000E+00 0.180E-02     0.545    31.844     0.000
FRSE    7 000050001    5    0    3.48223E-02    93.800     0.000     0.000     0.000   115.256    89.563   100.950   102.531     0.000    53.351     2.668     2.305     0.000     0.000  1007.254  2013.728     0.000     0.000     0.000    16.111    85.467   106.201    62.652    26.877    29.777    23.977    24.622    16.583     0.000     0.000     0.000     0.000     0.000     0.000     0.000     0.000     0.000     0.000     0.000     0.000     0.010     1.416    -1.323     0.002     0.242    -0.255    -0.412     0.000     1.422     0.218     0.000     0.000     0.000     0.000     0.000     0.000     0.018     0.000     0.000     0.000     0.047     6.355     0.000     4.969     5.000     2.290 .00000E+00 .00000E+00 0.236E+01 0.444E+04 0.000E+00 0.000E+00 0.000E+00 0.000E+00 0.000E+00 0.415E-03     4.623    16.111     0.000
FRSE    8 000050002    5    0    3.39091E-01    93.800     0.000     0.000     0.000   115.256    83.366    27.775    18.199     0.000     2.638     0.132     2.305     0.000     0.000   924.665  2000.498     0.000     0.000     0.000    39.846     0.000    40.008    66.029    26.877    29.777    23.977    24.998    16.583     0.000     0.000     0.000     0.000     0.000     0.000     0.000     0.000     0.000     0.000     0.000     0.000     0.005     0.697    -0.821     0.001     0.119    -0.461    -0.499     0.000     0.702     0.229     0.000     0.000     0.000     0.000     0.000     0.000     0.000     0.000     0.000     1.086     0.047     3.054     0.000     5.735     5.000     2.642 .00000E+00 .00000E+00 0.239E+01 0.404E+04 0.000E+00 0.000E+00 0.000E+00 0.000E+00 0.000E+00 0.314E-03     0.162    39.846     0.000
FRSD    9 000050003    5    0    3.41041E-03    93.800     0.000     0.000     0.000   115.256    87.944   108.489   101.873     0.000    17.587     0.879     2.305     0.000     0.000  1000.197  2004.001     0.005     0.005     0.000    28.764    27.850    57.954    75.590    26.877    29.777    23.977    24.540    16.583     0.000     0.000     0.000     0.000     0.000     0.000     0.000     0.000     0.000     0.000     0.000     0.000     0.283     1.473    -1.267     0.202     0.252    -0.549    -0.448     0.000     1.697     0.706     0.000     0.000     0.000     0.000     0.002     0.000     0.002     0.000     0.000     0.000     0.120     6.726     0.000     4.730     4.963     0.275 .00000E+00 .00000E+00 0.239E+01 0.444E+04 0.000E+00 0.000E+00 0.000E+00 0.000E+00 0.000E+00 0.172E-02     1.334    28.764     0.000
FRSD   10 000050004    5    0    3.10260E-03    93.800     0.000     0.000     0.000   115.256    82.609    43.461    35.209     0.000     5.193     0.260     2.305     0.000     0.000  1000.029  2001.018     0.391     0.392     0.000    34.699     5.835    41.261    80.042    26.877    29.777    23.977    25.364    16.583     0.000     0.000     0.000     0.000     0.000     0.000     0.000     0.000     0.000     0.000     0.000     0.000     0.192     0.826    -0.820     0.163     0.141    -0.335    -0.246     0.000     0.976     0.451     0.000     0.000     0.000     0.000     0.002     0.000     0.000     0.000     0.000     0.000     0.120    13.713     0.000     3.397     4.516     0.197 .00000E+00 .00000E+00 0.240E+01 0.404E+04 0.000E+00 0.000E+00 0.000E+00 0.000E+00 0.000E+00 0.182E-02     0.335    34.699     0.000
FRSD   11 000050005    5    0    3.10260E-03    93.800     0.000     0.000     0.000   115.256    88.456   114.589   119.690     0.000    52.415     2.621     2.305     0.000     0.000  1016.158  2012.904     4.048     4.048     0.000     6.309    84.074    98.762    85.967    26.877    29.777    23.977    24.589    16.583     0.000     0.000     0.000     0.000     0.000     0.000     0.000     0.000     0.000     0.000     0.000     0.000     0.276     1.498    -1.296     0.195     0.256    -0.477    -0.447     0.000     1.718     0.632     0.000     0.000     0.000     0.000     0.000     0.000     0.016     0.001     0.000     0.000     0.120     8.603     0.000     4.378     4.906     0.254 .00000E+00 .00000E+00 0.240E+01 0.444E+04 0.000E+00 0.000E+00 0.000E+00 0.000E+00 0.000E+00 0.458E-03     4.331     6.309     0.000
FRSD   12 000050006    5    0    3.10260E-03    93.800     0.000     0.000     0.000   115.256    88.321   116.150   124.074     0.000    64.251     3.213     2.305     0.000     0.000  1019.647  2016.032     4.240     4.240     0.000     1.885   103.251   114.762    86.106    26.877    29.777    23.977    24.607    16.583     0.000     0.000     0.000     0.000     0.000     0.000     0.000     0.000     0.000     0.000     0.000     0.000     0.272     1.501    -1.297     0.191     0.257    -0.442    -0.426     0.000     1.718     0.609     0.000     0.000     0.000     0.000     0.000     0.000     0.022     0.001     0.000     0.000     0.120     9.303     0.000     4.220     4.861     0.245 .00000E+00 .00000E+00 0.240E+01 0.444E+04 0.000E+00 0.000E+00 0.000E+00 0.000E+00 0.000E+00 0.384E-03     5.386     1.885     0.000
FRSE   13 000060001    6    0    3.85160E-02    93.800     0.000     0.000     0.000   115.244    89.601   101.240   103.418     0.000    56.202     2.810     2.305     0.000     0.000  1007.844  2014.485     0.000     0.000     0.000    15.200    90.072   110.152    62.712    26.877    29.777    23.977    24.630    16.583     0.000     0.000     0.000     0.000     0.000     0.000     0.000     0.000     0.000     0.000     0.000     0.000     0.010     1.418    -1.324     0.002     0.242    -0.248    -0.403     0.000     1.424     0.220     0.000     0.000     0.000     0.000     0.000     0.000     0.019     0.000     0.000     0.000     0.047     6.672     0.000     4.885     5.000     2.251 .00000E+00 .00000E+00 0.236E+01 0.444E+04 0.000E+00 0.000E+00 0.000E+00 0.000E+00 0.000E+00 0.400E-03     4.881    15.200     0.000
FRSE   14 000060002    6    0    3.76542E-01    93.800     0.000     0.000     0.000   115.244    86.273    29.480    21.555     0.000     8.168     0.408     2.305     0.000     0.000  1000.000  2001.861     0.000     0.000     0.000    33.603     6.607    40.829    66.807    26.877    29.777    23.977    25.091    16.583     0.000     0.000     0.000     0.000     0.000     0.000     0.000     0.000     0.000     0.000     0.000     0.000     0.005     0.718    -0.842     0.001     0.123    -0.291    -0.391     0.000     0.721     0.138     0.000     0.000     0.000     0.000     0.001     0.000     0.001     0.000     0.000     0.190     0.047     9.323     0.000     4.587     5.000     2.114 .00000E+00 .00000E+00 0.239E+01 0.404E+04 0.000E+00 0.000E+00 0.000E+00 0.000E+00 0.000E+00 0.633E-03     0.620    33.603     0.000
[...]
FRSD   18 000070002    7    0  4.0.14364E-02  3445.525     0.000     0.000     0.000  1685.585   967.891    76.422    90.391    51.000    50.638     2.532    33.712     0.000     0.000   987.804  2000.327  1256.613  1256.613     0.000  1169.202    17.100  2445.541    86.587    26.585    28.867    24.303    25.497    17.431     3.641     3.476     0.000     0.000     0.000     0.000     0.000     0.000     0.000     0.000     0.000     0.000     1.619    12.040   -10.157     0.602     2.056     0.247     0.490     0.000     7.708     1.956    28.430     3.527     2.734     0.072     1.428     0.602     0.001     0.152     0.000     1.422     0.385    30.858     0.000     8.342     4.789     5.839 .00000E+00 .00000E+00 0.154E+00 0.000E+00 0.000E+00 0.000E+00 0.000E+00 0.000E+00 0.000E+00 0.143E+01     2.625  1169.202     0.000
FRSE   19 000080001    8    0  4.0.10260E-03  3445.525     0.000     0.000     0.000  1685.640   996.455    86.114    90.427  1401.018  1388.582    69.429    33.713     0.000     0.000  1047.864  2014.936  1009.086  1009.081     0.000    39.559  1288.108  2407.543    83.475    26.585    28.867    24.303    25.752    17.431     1.055     2.234     0.000     0.000     0.000     0.000     0.000     0.000     0.000     0.000     0.000     0.000     0.528    12.647   -11.116     0.143     2.157    -1.258    -0.984     0.000     3.034     0.824    13.038     1.591     1.130     0.019     0.044     9.990     0.255     0.187     0.000     0.000     0.074    34.685     0.000     3.546     3.430     2.482 .00000E+00 .00000E+00 0.922E-01 0.000E+00 0.000E+00 0.000E+00 0.000E+00 0.000E+00 0.000E+00 0.442E-01    70.795    39.559     0.000
FRSE   20 000080002    8    0  4.0.33859E-01  3445.525     0.000     0.000     0.000  1685.640   938.390    78.399    90.334    45.400    44.833     2.242    33.713     0.000     0.000   987.657  2000.311   939.808   939.808     0.000  1520.367    12.020  2474.527    81.606    26.585    28.867    24.303    25.603    17.431    18.035    20.092     0.000     0.000     0.000     0.000     0.000     0.000     0.000     0.000     0.000     0.000     1.123    11.760   -10.170     0.275     2.006     0.336     0.700     0.000     6.646     1.630    40.760     4.985     3.913     0.034     1.704     0.678     0.001     0.037     0.000     3.305     0.074    10.450     0.000     7.004     5.000     4.903 .00000E+00 .00000E+00 0.837E-01 0.000E+00 0.000E+00 0.000E+00 0.000E+00 0.000E+00 0.000E+00 0.170E+01     2.332  1520.367     0.000
BARR   21 000080003    8    0  4.0.51302E-03  3445.525     0.000     0.000     0.000  1685.640   841.442    69.696    72.163     0.998     0.999     0.050     9.827     0.000     0.000   750.000  2000.021  2155.837  2155.838     0.000   446.993     0.000  2602.884    95.560    26.585    28.867    24.303    25.768    17.431    95.691    68.915     0.000     0.000     0.000     0.000     0.000     0.000     0.000     0.000     0.000     0.000     0.017    11.431   -10.166     0.005     1.950     1.902     2.051     0.000     0.017     0.004    49.336     6.011     5.101     0.275     1.251     0.504     0.000     0.029     0.000    28.615     0.888     0.000     5.974     0.001     0.000     0.000 .00000E+00 .00000E+00 0.153E+01 0.000E+00 0.000E+00 0.000E+00 0.000E+00 0.000E+00 0.000E+00 0.125E+01     0.054   446.993     0.000
FRSD   22 000080004    8    0  4.0.20521E-03  3445.525     0.000     0.000     0.000  1685.640   956.923    74.193    90.382    28.825    28.977     1.449    33.713     0.000     0.000   951.749  2000.174  1231.863  1231.864     0.000  1226.952     0.000  2460.313    86.199    26.585    28.867    24.303    25.472    17.431     3.397     4.521     0.000     0.000     0.000     0.000     0.000     0.000     0.000     0.000     0.000     0.000     1.681    11.994   -10.086     0.619     2.048     0.244     0.480     0.000     8.038     2.024    27.308     3.391     2.631     0.076     1.419     0.286     0.000     0.156     0.000     1.878     0.385    28.542     0.000     8.631     4.843     6.042 .00000E+00 .00000E+00 0.133E+00 0.000E+00 0.000E+00 0.000E+00 0.000E+00 0.000E+00 0.000E+00 0.142E+01     1.499  1226.952     0.000
FRSE   23 000090001    9    0  4.0.10671E-01  3445.525     0.000     0.000     0.000  1685.709  1027.856   152.245   158.818  1068.706  1058.715    52.936    33.714     0.000     0.000  1035.128  2011.120   510.535   510.536     0.000   837.102   972.758  2374.413    72.205    26.585    28.867    24.303    24.946    17.431     2.675     5.804     0.000     0.000     0.000     0.000     0.000     0.000     0.000     0.000     0.000     0.000     1.035    18.848   -16.319     0.250     3.218     0.148     0.306     0.000     6.196     1.501    22.625     2.763     1.960     0.009     0.867    10.730     0.234     0.074     0.000     0.000     0.074    14.740     0.000     6.457     4.936     4.520 .00000E+00 .00000E+00 0.221E-01 0.000E+00 0.000E+00 0.000E+00 0.000E+00 0.000E+00 0.000E+00 0.867E+00    54.017   837.102     0.000
FRSE   24 000090002    9    0  4.0.10773E-01  3445.525     0.000     0.000     0.000  1685.709   944.614    79.388    90.336    59.889    59.133     2.957    33.714     0.000     0.000   990.443  2000.454   949.014   949.014     0.000  1490.545    24.877  2467.502    81.831    26.585    28.867    24.303    25.615    17.431    14.391    19.546     0.000     0.000     0.000     0.000     0.000     0.000     0.000     0.000     0.000     0.000     1.074    11.821   -10.233     0.268     2.017     0.340     0.695     0.000     6.325     1.579    39.664     4.850     3.791     0.033     1.724     0.941     0.001     0.041     0.000     3.163     0.074    12.210     0.000     6.781     5.000     4.747 .00000E+00 .00000E+00 0.844E-01 0.000E+00 0.000E+00 0.000E+00 0.000E+00 0.000E+00 0.000E+00 0.172E+01     3.066  1490.545     0.000
FRSD   25 000090003    9    0  4.0.20520E-03  3445.525     0.000     0.000     0.000  1685.709   933.764    68.488    82.485     8.249     8.306     0.415    33.656     0.000     0.000   750.000  2000.049  1162.340  1162.340     0.000  1341.898     0.000  2504.655    85.196    26.585    28.867    24.303    25.421    17.431     4.602     7.802     0.000     0.000     0.000     0.000     0.000     0.000     0.000     0.000     0.000     0.000     1.712    11.748    -9.846     0.626     2.006     0.283     0.554     0.000     8.261     2.070    31.430     3.912     3.081     0.075     1.365     0.044     0.000     0.124     0.000     2.421     0.385    26.839     0.000     8.829     4.880     6.180 .00000E+00 .00000E+00 0.104E+00 0.000E+00 0.000E+00 0.000E+00 0.000E+00 0.000E+00 0.000E+00 0.137E+01     0.417  1341.898     0.000
FRSE   26 000100001   10    0  4.0.69768E-02  3445.525     0.000     0.000     0.000  1685.744  1028.299   152.282   158.818  1096.915  1086.683    54.334    33.715     0.000     0.000  1036.357  2011.435   510.731   510.732     0.000   808.328   999.558  2374.056    72.212    26.585    28.867    24.303    24.948    17.431     2.364     5.079     0.000     0.000     0.000     0.000     0.000     0.000     0.000     0.000     0.000     0.000     1.029    18.877   -16.344     0.249     3.223     0.116     0.264     0.000     6.151     1.492    21.179     2.586     1.820     0.009     0.837    10.896     0.243     0.079     0.000     0.000     0.074    14.996     0.000     6.420     4.928     4.494 .00000E+00 .00000E+00 0.219E-01 0.000E+00 0.000E+00 0.000E+00 0.000E+00 0.000E+00 0.000E+00 0.837E+00    55.439   808.328     0.000
FRSE   27 000100002   10    0  4.0.24624E-02  3445.525     0.000     0.000     0.000  1685.744   924.556    76.016    90.321    22.426    22.368     1.118    33.715     0.000     0.000   888.619  2000.141   913.136   913.136     0.000  1583.655     0.000  2497.952    81.054    26.585    28.867    24.303    25.579    17.431    15.880    20.146     0.000     0.000     0.000     0.000     0.000     0.000     0.000     0.000     0.000     0.000     1.233    11.715   -10.092     0.291     1.999     0.326     0.687     0.000     7.272     1.714    39.870     4.875     3.820     0.038     1.661     0.279     0.000     0.039     0.000     3.551     0.074     7.494     0.000     7.372     5.000     5.160 .00000E+00 .00000E+00 0.631E-01 0.000E+00 0.000E+00 0.000E+00 0.000E+00 0.000E+00 0.000E+00 0.166E+01     1.161  1583.655     0.000
FRSE   28 000100003   10    0  4.0.82080E-03  3445.525     0.000     0.000     0.000  1685.744  1035.240   152.710   158.846  1218.883  1207.702    60.385    33.715     0.000     0.000  1044.218  2012.951  1037.558  1037.558     0.000   153.450  1114.849  2367.509    84.358    26.585    28.867    24.303    24.947    17.431     4.113     6.267     0.000     0.000     0.000     0.000     0.000     0.000     0.000     0.000     0.000     0.000     1.052    18.758   -16.254     0.253     3.203     0.071     0.300     0.000     6.327     1.521    28.310     3.458     2.522     0.026     0.188    12.606     0.308     0.109     0.000     0.000     0.074    14.126     0.000     6.544     4.952     4.581 .00000E+00 .00000E+00 0.998E-01 0.000E+00 0.000E+00 0.000E+00 0.000E+00 0.000E+00 0.000E+00 0.188E+00    61.650   153.450     0.000
FRSE   29 000100004   10    0  4.0.51300E-03  3445.525     0.000     0.000     0.000  1685.744  1035.265   152.713   158.846  1221.254  1210.054    60.503    33.715     0.000     0.000  1044.310  2012.980  1037.576  1037.576     0.000   151.053  1117.082  2367.482    84.358    26.585    28.867    24.303    24.947    17.431     3.778     6.097     0.000     0.000     0.000     0.000     0.000     0.000     0.000     0.000     0.000     0.000     1.054    18.779   -16.270     0.253     3.206     0.059     0.278     0.000     6.331     1.521    27.308     3.336     2.419     0.026     0.186    12.633     0.309     0.116     0.000     0.000     0.074    14.113     0.000     6.546     4.952     4.582 .00000E+00 .00000E+00 0.998E-01 0.000E+00 0.000E+00 0.000E+00 0.000E+00 0.000E+00 0.000E+00 0.186E+00    61.770   151.053     0.000
SWCH   30 000110001   11    0  4.0.92344E-03  3445.525     0.000     0.000     0.000  1685.745  1065.135   142.015   159.603   709.575   701.880    35.094    33.715     0.000     0.000  1041.540  2007.675   599.605   599.605     0.000  1070.218   634.066  2339.681    73.927    26.585    28.867    24.303    24.152    17.431     0.093     0.228     0.000     0.000   140.181     0.000     0.000     0.000     0.000     0.000     0.000     0.000    34.620    20.482   -11.941     8.264     3.515   -32.780   -28.466     0.000   151.518    42.863     1.392     0.180     0.090     0.823     8.661     9.367     0.174     0.207     0.000     0.000     0.888    72.786     0.000    39.176     5.526    25.494 .00000E+00 .00000E+00 0.312E-01 0.000E+00 0.000E+00 0.000E+00 0.000E+00 0.000E+00 0.000E+00 0.866E+01    35.792  1070.218     0.000
FRSE   31 000110002   11    0  4.0.20521E-03  3445.525     0.000     0.000     0.000  1685.745  1036.645   153.150   159.056  1868.992  1852.364    92.618    33.715     0.000     0.000  1064.722  2019.787   515.399   515.396     0.000    24.950  1732.260  2366.992    72.368    26.585    28.867    24.303    24.975    17.431     0.159     0.890     0.000     0.000     0.000     0.000     0.000     0.000     0.000     0.000     0.000     0.000     0.899    19.220   -16.652     0.223     3.281    -0.654    -0.520     0.000     5.342     1.329     2.401     0.293     0.186     0.008     0.025    14.547     0.502     0.139     0.000     0.000     0.074    19.882     0.000     5.720     4.695     4.004 .00000E+00 .00000E+00 0.250E-01 0.000E+00 0.000E+00 0.000E+00 0.000E+00 0.000E+00 0.000E+00 0.246E-01    94.387    24.950     0.000
FRSE   32 000110003   11    0  4.0.72849E-02  3445.525     0.000     0.000     0.000  1685.745  1027.586   152.226   158.816  1053.408  1043.544    52.177    33.715     0.000     0.000  1034.926  2010.957   510.431   510.431     0.000   852.736   958.099  2374.510    72.202    26.585    28.867    24.303    24.945    17.431     2.656     6.029     0.000     0.000     0.000     0.000     0.000     0.000     0.000     0.000     0.000     0.000     1.040    18.849   -16.319     0.251     3.218     0.159     0.315     0.000     6.227     1.506    22.530     2.752     1.952     0.009     0.885    10.647     0.229     0.074     0.000     0.000     0.074    14.571     0.000     6.481     4.940     4.537 .00000E+00 .00000E+00 0.219E-01 0.000E+00 0.000E+00 0.000E+00 0.000E+00 0.000E+00 0.000E+00 0.885E+00    53.245   852.736     0.000
FRSE   33 000110004   11    0  4.0.11799E-01  3445.525     0.000     0.000     0.000  1685.745   961.655    81.707    90.348   129.171   127.637     6.382    33.715     0.000     0.000  1003.019  2001.162   969.387   969.387     0.000  1384.124    87.561  2447.645    82.351    26.585    28.867    24.303    25.650    17.431    10.895    11.281     0.000     0.000     0.000     0.000     0.000     0.000     0.000     0.000     0.000     0.000     0.882    11.935   -10.376     0.231     2.036     0.365     0.702     0.000     5.171     1.358    38.396     4.692     3.661     0.028     1.706     2.080     0.007     0.049     0.000     2.611     0.074    19.396     0.000     5.827     4.972     4.079 .00000E+00 .00000E+00 0.851E-01 0.000E+00 0.000E+00 0.000E+00 0.000E+00 0.000E+00 0.000E+00 0.171E+01     6.573  1384.124     0.000
FRSE   34 000110005   11    0  4.0.10261E-03  3445.525     0.000     0.000     0.000  1685.745  1036.873   152.947   159.059  1348.219  1336.014    66.801    33.715     0.000     0.000  1049.231  2014.366  1039.341  1039.333     0.000    21.592  1237.518  2366.625    84.383    26.585    28.867    24.303    24.950    17.431     0.319     0.703     0.000     0.000     0.000     0.000     0.000     0.000     0.000     0.000     0.000     0.000     1.054    19.184   -16.597     0.253     3.275    -0.252    -0.164     0.000     6.264     1.506     4.654     0.568     0.369     0.030     0.027    13.603     0.361     0.275     0.000     0.000     0.074    14.574     0.000     6.480     4.932     4.536 .00000E+00 .00000E+00 0.101E+00 0.000E+00 0.000E+00 0.000E+00 0.000E+00 0.000E+00 0.000E+00 0.272E-01    68.182    21.592     0.000
FRSE   35 000110006   11    0  4.0.71823E-03  3445.525     0.000     0.000     0.000  1685.745  1035.904   152.781   158.879  1272.109  1260.496    63.025    33.715     0.000     0.000  1046.290  2013.536  1038.018  1038.018     0.000    99.492  1165.297  2367.145    84.365    26.585    28.867    24.303    24.948    17.431     2.001     2.811     0.000     0.000     0.000     0.000     0.000     0.000     0.000     0.000     0.000     0.000     1.054    18.932   -16.392     0.253     3.232    -0.055     0.103     0.000     6.298     1.514    19.681     2.403     1.671     0.028     0.123    13.015     0.329     0.172     0.000     0.000     0.074    14.328     0.000     6.515     4.944     4.561 .00000E+00 .00000E+00 0.100E+00 0.000E+00 0.000E+00 0.000E+00 0.000E+00 0.000E+00 0.000E+00 0.123E+00    64.338    99.492     0.000
FRSD   36 000110007   11    0  4.0.25651E-02  3445.525     0.000     0.000     0.000  1685.745  1039.144   150.825   158.862   683.797   677.466    33.873    33.715     0.000     0.000  1024.146  2006.990   867.158   867.159     0.000   854.934   612.400  2369.015    81.188    26.585    28.867    24.303    24.755    17.431     1.004     1.668     0.000     0.000     0.000     0.000     0.000     0.000     0.000     0.000     0.000     0.000     2.043    19.009   -16.048     0.683     3.247     0.238     0.345     0.000     9.729     2.234    11.748     1.453     1.012     0.033     0.979     7.432     0.111     0.206     0.000     0.000     0.385    21.066     0.000     9.532     4.861     6.673 .00000E+00 .00000E+00 0.599E-01 0.000E+00 0.000E+00 0.000E+00 0.000E+00 0.000E+00 0.000E+00 0.979E+00    34.522   854.934     0.000
FRSD   37 000110008   11    0  4.0.15391E-02  3445.525     0.000     0.000     0.000  1685.745   976.156    78.176    90.393    79.433    78.630     3.932    33.715     0.000     0.000   992.270  2000.588  1273.897  1273.897     0.000  1115.336    43.470  2436.766    86.893    26.585    28.867    24.303    25.519    17.431     3.104     3.591     0.000     0.000     0.000     0.000     0.000     0.000     0.000     0.000     0.000     0.000     1.558    12.135   -10.255     0.584     2.072     0.228     0.451     0.000     7.353     1.880    26.131     3.236     2.486     0.069     1.429     1.035     0.002     0.168     0.000     1.019     0.385    33.389     0.000     8.017     4.713     5.612 .00000E+00 .00000E+00 0.165E+00 0.000E+00 0.000E+00 0.000E+00 0.000E+00 0.000E+00 0.000E+00 0.143E+01     4.063  1115.336     0.000
FRSD   38 000110009   11    0  4.0.20521E-03  3445.525     0.000     0.000     0.000  1685.745  1049.764   151.691   159.113  1018.683  1010.605    50.530    33.715     0.000     0.000  1043.227  2010.734  1368.318  1368.275     0.000     9.690   927.470  2356.929    88.877    26.585    28.867    24.303    24.763    17.431     0.065     0.158     0.000     0.000     0.000     0.000     0.000     0.000     0.000     0.000     0.000     0.000     2.040    19.254   -16.253     0.684     3.289    -0.220    -0.088     0.000     9.632     2.209     1.052     0.130     0.084     0.074     0.014    10.855     0.229     0.423     0.000     0.000     0.385    21.777     0.000     9.427     4.829     6.599 .00000E+00 .00000E+00 0.178E+00 0.000E+00 0.000E+00 0.000E+00 0.000E+00 0.000E+00 0.000E+00 0.137E-01    51.493     9.690     0.000
FRSD   39 000110010   11    0  4.0.12312E-02  3445.525     0.000     0.000     0.000  1685.745  1048.424   151.426   158.903   928.243   920.639    46.032    33.715     0.000     0.000  1038.676  2009.725  1366.615  1366.615     0.000   102.696   842.775  2359.005    88.858    26.585    28.867    24.303    24.759    17.431     0.968     0.968     0.000     0.000     0.000     0.000     0.000     0.000     0.000     0.000     0.000     0.000     2.049    19.037   -16.084     0.687     3.252    -0.030     0.116     0.000     9.729     2.230    11.617     1.436     0.992     0.072     0.144    10.096     0.197     0.323     0.000     0.000     0.385    21.167     0.000     9.513     4.849     6.659 .00000E+00 .00000E+00 0.179E+00 0.000E+00 0.000E+00 0.000E+00 0.000E+00 0.000E+00 0.000E+00 0.144E+00    46.919   102.696     0.000
FRSD   40 000110011   11    0  4.0.10261E-03  3445.525     0.000     0.000     0.000  1685.745   966.785    76.211    90.386    48.528    48.215     2.411    33.715     0.000     0.000   987.532  2000.314  1254.466  1254.466     0.000  1174.921    14.647  2446.533    86.551    26.585    28.867    24.303    25.494    17.431     2.600     4.066     0.000     0.000     0.000     0.000     0.000     0.000     0.000     0.000     0.000     0.000     1.641    12.121   -10.208     0.608     2.070     0.213     0.420     0.000     7.788     1.972    23.426     2.903     2.223     0.075     1.443     0.567     0.000     0.182     0.000     1.457     0.385    30.339     0.000     8.407     4.800     5.885 .00000E+00 .00000E+00 0.150E+00 0.000E+00 0.000E+00 0.341E+04 0.121E+06 0.000E+00 0.000E+00 0.144E+01     2.499  1174.921     0.000
