1
    SWAT Dec 23 2016    VER 2016/Rev 664                                                                 0/ 0/   0      0: 0: 0

    General Input/Output section (file.cio):                                        
    2/11/2020 16:50:08 QSWAT Workflow v1.5.2                                        
                                                                                    


       SUB      GIS  MON   AREAkm2  PRECIPmm SNOMELTmm     PETmm      ETmm      SWmm    PERCmm    SURQmm    GW_Qmm    WYLDmm  SYLDt/ha ORGNkg/ha ORGPkg/haNSURQkg/ha SOLPkg/ha SEDPkg/ha LAT Q(mm)LATNO3kg/hGWNO3kg/haCHOLAmic/LCBODU mg/L DOXQ mg/L TNO3kg/ha   QTILEmm TVAPkg/ha
BIGSUB   1        0    1.72643E-01   576.600     0.000   117.347    87.595    96.086    10.482   162.595     0.000   459.256    10.733    25.067     3.062     0.005     0.009     2.453   296.539     0.425     0.000 .00000E+00 0.000E+00 0.000E+00 0.000E+00 0.000E+00 0.000E+00
BIGSUB   2        0    1.84750E-01   576.600     0.000   117.338    87.692    96.086    12.140   163.360     0.000   457.804    10.113    24.456     2.988     0.005     0.009     2.392   294.292     0.430     0.000 .00000E+00 0.000E+00 0.000E+00 0.000E+00 0.000E+00 0.000E+00
BIGSUB   3        0    1.42478E-01   576.600     0.000   117.354    87.968    96.087    15.709   163.601     2.452   456.979     8.246    23.047     2.816     0.004     0.010     2.248   290.705     0.439     0.000 .00000E+00 0.000E+00 0.000E+00 0.000E+00 0.000E+00 0.000E+00
BIGSUB   4        0    1.68128E-01   576.600     0.000   117.348    87.402    96.090    11.600   166.463     0.580   459.279     9.913    23.510     2.872     0.006     0.012     2.300   292.097     0.423     0.000 .00000E+00 0.000E+00 0.000E+00 0.000E+00 0.000E+00 0.000E+00
BIGSUB   5        0    1.44632E-01   576.600     0.000   117.310    87.771   104.443    30.400   152.299    11.444   450.938     9.484    23.027     2.813     0.005     0.010     2.245   286.644     0.397     0.005 .00000E+00 0.000E+00 0.000E+00 0.000E+00 0.000E+00 0.000E+00
BIGSUB   6        0    1.85263E-01   576.600     0.000   117.305    88.758   103.099    46.955   154.700    21.733   446.205     5.658    19.457     2.377     0.004     0.010     1.887   268.901     0.409     0.006 .00000E+00 0.000E+00 0.000E+00 0.000E+00 0.000E+00 0.000E+00
BIGSUB   7        0    1.43914E-01   576.600     0.000   117.320    88.037    96.086    20.349   166.097     4.997   455.619     6.923    21.223     2.593     0.005     0.011     2.067   284.218     0.440     0.000 .00000E+00 0.000E+00 0.000E+00 0.000E+00 0.000E+00 0.000E+00
BIGSUB   8        0    1.34680E-01   576.600     0.000   117.307    87.940    96.029    17.068   167.434     4.595   457.932     7.855    22.510     2.750     0.005     0.010     2.196   285.653     0.436     0.000 .00000E+00 0.000E+00 0.000E+00 0.000E+00 0.000E+00 0.000E+00
BIGSUB   9        0    1.21649E-01   576.600     0.000   117.290    89.522   129.894   129.535   117.561    64.239   406.595     3.472    14.541     1.777     0.003     0.011     1.379   222.104     0.304     0.027 .00000E+00 0.000E+00 0.000E+00 0.000E+00 0.000E+00 0.000E+00
BIGSUB  10        0    1.10773E-01   576.600     0.000   117.282    90.258   149.001   197.717   102.600   101.253   377.395     2.386    11.754     1.436     0.002     0.012     1.088   169.352     0.202     0.046 .00000E+00 0.000E+00 0.000E+00 0.000E+00 0.000E+00 0.000E+00
BIGSUB  11        0    1.26677E-01   576.600     0.000   117.282    88.352   130.146   131.308   140.418    66.231   410.352     2.113    10.735     1.312     0.009     0.023     1.018   201.054     0.309     0.024 .00000E+00 0.000E+00 0.000E+00 0.000E+00 0.000E+00 0.000E+00
BIGSUB   1        0    2.72643E-01   144.700     0.000   106.785    68.503    47.582     3.671    42.253     0.000   131.032     5.394     6.787     0.829     0.000     0.002     0.665    88.615     0.121     0.000 .00000E+00 0.000E+00 0.000E+00 0.000E+00 0.000E+00 0.000E+00
BIGSUB   2        0    2.84750E-01   144.700     0.000   106.764    68.415    47.663     4.139    42.341     0.000   130.533     5.067     6.664     0.814     0.000     0.002     0.653    87.993     0.121     0.000 .00000E+00 0.000E+00 0.000E+00 0.000E+00 0.000E+00 0.000E+00
BIGSUB   3        0    2.42478E-01   144.700     0.000   106.802    68.513    47.575     5.129    42.253     7.585   137.078     4.104     6.455     0.789     0.000     0.002     0.630    86.967     0.120     0.001 .00000E+00 0.000E+00 0.000E+00 0.000E+00 0.000E+00 0.000E+00
BIGSUB   4        0    2.68128E-01   144.700     0.000   106.788    67.798    48.249     3.984    43.078     0.847   131.472     4.981     6.391     0.781     0.000     0.002     0.626    87.363     0.120     0.000 .00000E+00 0.000E+00 0.000E+00 0.000E+00 0.000E+00 0.000E+00
BIGSUB   5        0    2.44632E-01   144.700     0.000   106.699    68.475    55.944     8.717    39.893    12.808   139.711     4.786     6.388     0.780     0.000     0.002     0.623    86.395     0.113     0.005 .00000E+00 0.000E+00 0.000E+00 0.000E+00 0.000E+00 0.000E+00
BIGSUB   6        0    2.85263E-01   144.700     0.000   106.690    68.610    54.484    13.242    40.032    26.191   148.203     2.788     5.699     0.696     0.000     0.002     0.552    81.015     0.101     0.007 .00000E+00 0.000E+00 0.000E+00 0.000E+00 0.000E+00 0.000E+00
BIGSUB   7        0    2.43914E-01   144.700     0.000   106.724    68.061    47.996     6.393    42.726    10.243   138.372     3.429     6.038     0.738     0.000     0.002     0.589    85.033     0.116     0.001 .00000E+00 0.000E+00 0.000E+00 0.000E+00 0.000E+00 0.000E+00
BIGSUB   8        0    2.34680E-01   144.700     0.000   106.694    67.968    48.101     5.491    43.152     8.737   137.695     3.878     6.312     0.771     0.000     0.002     0.616    85.503     0.121     0.001 .00000E+00 0.000E+00 0.000E+00 0.000E+00 0.000E+00 0.000E+00
BIGSUB   9        0    2.21649E-01   144.700     0.000   106.655    69.149    80.733    33.950    31.407    73.164   178.041     1.752     4.717     0.576     0.000     0.002     0.444    70.608     0.079     0.029 .00000E+00 0.000E+00 0.000E+00 0.000E+00 0.000E+00 0.000E+00
BIGSUB  10        0    2.10773E-01   144.700     0.000   106.636    69.727    99.271    51.276    27.930   111.586   200.629     1.230     4.150     0.507     0.000     0.003     0.380    56.686     0.055     0.048 .00000E+00 0.000E+00 0.000E+00 0.000E+00 0.000E+00 0.000E+00
BIGSUB  11        0    2.26677E-01   144.700     0.000   106.635    66.896    83.001    34.691    36.562    74.631   177.621     1.051     3.469     0.424     0.001     0.005     0.327    63.578     0.075     0.028 .00000E+00 0.000E+00 0.000E+00 0.000E+00 0.000E+00 0.000E+00
BIGSUB   1        0    3.72643E-01    93.800     0.000   115.361    83.597    18.570     0.000     0.000     0.000    39.397     0.000     0.000     0.000     0.000     0.000     0.000    39.200     0.000     0.000 .00000E+00 0.000E+00 0.000E+00 0.000E+00 0.000E+00 0.000E+00
BIGSUB   2        0    3.84750E-01    93.800     0.000   115.334    83.827    19.065     0.000     0.001     0.000    38.789     0.000     0.000     0.000     0.000     0.000     0.000    38.554     0.000     0.000 .00000E+00 0.000E+00 0.000E+00 0.000E+00 0.000E+00 0.000E+00
BIGSUB   3        0    3.42478E-01    93.800     0.000   115.381    84.391    19.681     0.000     0.000     4.160    41.764     0.000     0.000     0.000     0.000     0.000     0.000    37.287     0.000     0.000 .00000E+00 0.000E+00 0.000E+00 0.000E+00 0.000E+00 0.000E+00
BIGSUB   4        0    3.68128E-01    93.800     0.000   115.364    83.545    19.733     0.000     0.029     0.494    39.469     0.000     0.000     0.000     0.000     0.000     0.000    38.726     0.000     0.000 .00000E+00 0.000E+00 0.000E+00 0.000E+00 0.000E+00 0.000E+00
BIGSUB   5        0    3.44632E-01    93.800     0.000   115.256    84.099    28.596     0.000     0.020     9.934    47.635     0.000     0.000     0.000     0.000     0.000     0.000    37.003     0.000     0.002 .00000E+00 0.000E+00 0.000E+00 0.000E+00 0.000E+00 0.000E+00
BIGSUB   6        0    3.85263E-01    93.800     0.000   115.244    86.615    29.952     0.000     0.001    15.207    47.960     0.000     0.000     0.000     0.000     0.000     0.000    31.693     0.001     0.002 .00000E+00 0.000E+00 0.000E+00 0.000E+00 0.000E+00 0.000E+00
BIGSUB   7        0    3.43914E-01    93.800     0.000   115.286    85.058    20.930     0.000     0.014     6.140    42.355     0.000     0.000     0.000     0.000     0.000     0.000    35.779     0.001     0.000 .00000E+00 0.000E+00 0.000E+00 0.000E+00 0.000E+00 0.000E+00
BIGSUB   8        0    3.34680E-01    93.800     0.000   115.249    83.911    20.872     0.000     0.468     3.743    41.194     0.025     0.018     0.002     0.000     0.000     0.002    36.634     0.001     0.000 .00000E+00 0.000E+00 0.000E+00 0.000E+00 0.000E+00 0.000E+00
BIGSUB   9        0    3.21649E-01    93.800     0.000   115.202    87.368    62.952     0.000     0.002    55.622    82.831     0.000     0.000     0.000     0.000     0.000     0.000    24.131     0.000     0.012 .00000E+00 0.000E+00 0.000E+00 0.000E+00 0.000E+00 0.000E+00
BIGSUB  10        0    3.10773E-01    93.800     0.000   115.178    88.380    87.754     0.000     0.044    86.135   107.682     0.000     0.000     0.000     0.000     0.000     0.000    16.762     0.000     0.019 .00000E+00 0.000E+00 0.000E+00 0.000E+00 0.000E+00 0.000E+00
BIGSUB  11        0    3.26677E-01    93.800     0.000   115.178    88.091    66.854     0.000     0.278    55.391    80.249     0.000     0.000     0.000     0.000     0.000     0.000    21.503     0.052     0.011 .00000E+00 0.000E+00 0.000E+00 0.000E+00 0.000E+00 0.000E+00
BIGSUB   1        0    4.72643E-01   238.900     0.000   112.379    56.982    47.252     0.000    29.088     0.000   138.156     0.015     0.025     0.003     0.001     0.001     0.002   108.904     0.028     0.000 .00000E+00 0.000E+00 0.000E+00 0.000E+00 0.000E+00 0.000E+00
BIGSUB   2        0    4.84750E-01   238.900     0.000   112.374    57.712    48.306     0.000    29.782     0.000   137.047     0.015     0.026     0.003     0.001     0.001     0.002   107.069     0.028     0.000 .00000E+00 0.000E+00 0.000E+00 0.000E+00 0.000E+00 0.000E+00
BIGSUB   3        0    4.42478E-01   238.900     0.000   112.383    58.839    50.418     0.000    30.685     0.000   134.747     0.013     0.026     0.003     0.001     0.001     0.002   103.800     0.029     0.000 .00000E+00 0.000E+00 0.000E+00 0.000E+00 0.000E+00 0.000E+00
BIGSUB   4        0    4.68128E-01   238.900     0.000   112.380    58.326    47.778     0.000    30.729     0.034   137.801     0.014     0.026     0.003     0.001     0.001     0.002   106.855     0.026     0.000 .00000E+00 0.000E+00 0.000E+00 0.000E+00 0.000E+00 0.000E+00
BIGSUB   5        0    4.44632E-01   238.900     0.000   112.358    60.309    60.043     0.453    28.956     2.719   134.944     0.013     0.024     0.003     0.001     0.001     0.002   102.720     0.026     0.000 .00000E+00 0.000E+00 0.000E+00 0.000E+00 0.000E+00 0.000E+00
BIGSUB   6        0    4.85263E-01   238.900     0.000   112.356    64.616    68.182     0.739    32.542     3.185   126.051     0.012     0.030     0.004     0.001     0.002     0.003    89.466     0.027     0.000 .00000E+00 0.000E+00 0.000E+00 0.000E+00 0.000E+00 0.000E+00
BIGSUB   7        0    4.43914E-01   238.900     0.000   112.364    60.703    52.923     0.000    32.384     0.059   132.355     0.012     0.028     0.003     0.001     0.001     0.003    99.567     0.028     0.000 .00000E+00 0.000E+00 0.000E+00 0.000E+00 0.000E+00 0.000E+00
BIGSUB   8        0    4.34680E-01   238.900     0.000   112.357    59.150    51.328     0.162    33.111     0.140   135.026     0.153     0.109     0.013     0.001     0.001     0.011   101.487     0.028     0.000 .00000E+00 0.000E+00 0.000E+00 0.000E+00 0.000E+00 0.000E+00
BIGSUB   9        0    4.21649E-01   238.900     0.000   112.347    74.039   107.029     8.670    31.287    13.432   114.735     0.007     0.026     0.003     0.001     0.003     0.002    67.543     0.020     0.001 .00000E+00 0.000E+00 0.000E+00 0.000E+00 0.000E+00 0.000E+00
BIGSUB  10        0    4.10773E-01   238.900     0.000   112.343    81.089   136.353    14.618    36.289    23.671   110.481     0.005     0.025     0.003     0.001     0.004     0.002    46.717     0.013     0.002 .00000E+00 0.000E+00 0.000E+00 0.000E+00 0.000E+00 0.000E+00
BIGSUB  11        0    4.26677E-01   238.900     0.000   112.343    77.966   110.168     5.812    41.819    15.568   118.716     0.007     0.030     0.004     0.001     0.006     0.003    58.851     0.018     0.001 .00000E+00 0.000E+00 0.000E+00 0.000E+00 0.000E+00 0.000E+00
BIGSUB   1        0    5.72643E-01   134.700     0.000   133.619    73.285    44.093     0.000     1.612     0.000    79.206     0.001     0.001     0.000     0.000     0.000     0.000    77.460     0.054     0.000 .00000E+00 0.000E+00 0.000E+00 0.000E+00 0.000E+00 0.000E+00
BIGSUB   2        0    5.84750E-01   134.700     0.000   133.629    73.734    45.556     0.000     1.743     0.000    78.233     0.001     0.002     0.000     0.000     0.000     0.000    76.330     0.054     0.000 .00000E+00 0.000E+00 0.000E+00 0.000E+00 0.000E+00 0.000E+00
BIGSUB   3        0    5.42478E-01   134.700     0.000   133.612    74.246    48.734     0.000     1.990     0.000    76.465     0.001     0.002     0.000     0.000     0.000     0.000    74.262     0.054     0.000 .00000E+00 0.000E+00 0.000E+00 0.000E+00 0.000E+00 0.000E+00
BIGSUB   4        0    5.68128E-01   134.700     0.000   133.618    74.813    44.140     0.000     1.793     0.000    77.887     0.001     0.002     0.000     0.000     0.000     0.000    75.945     0.051     0.000 .00000E+00 0.000E+00 0.000E+00 0.000E+00 0.000E+00 0.000E+00
BIGSUB   5        0    5.44632E-01   134.700     0.000   133.658    74.933    56.313     1.875     1.629     1.494    77.827     0.001     0.001     0.000     0.000     0.000     0.000    74.253     0.050     0.000 .00000E+00 0.000E+00 0.000E+00 0.000E+00 0.000E+00 0.000E+00
BIGSUB   6        0    5.85263E-01   134.700     0.000   133.662    77.233    68.863     1.899     2.816     1.571    69.787     0.001     0.003     0.000     0.000     0.000     0.000    64.698     0.048     0.000 .00000E+00 0.000E+00 0.000E+00 0.000E+00 0.000E+00 0.000E+00
BIGSUB   7        0    5.43914E-01   134.700     0.000   133.646    75.801    51.896     0.000     2.363     0.000    73.761     0.001     0.002     0.000     0.000     0.000     0.000    71.118     0.051     0.000 .00000E+00 0.000E+00 0.000E+00 0.000E+00 0.000E+00 0.000E+00
BIGSUB   8        0    5.34680E-01   134.700     0.000   133.660    74.574    49.642     0.115     2.677     0.128    75.883     0.027     0.017     0.002     0.001     0.000     0.002    72.843     0.053     0.000 .00000E+00 0.000E+00 0.000E+00 0.000E+00 0.000E+00 0.000E+00
BIGSUB   9        0    5.21649E-01   134.700     0.000   133.677    81.073   105.427    11.123     2.179    10.603    69.320     0.001     0.002     0.000     0.000     0.000     0.000    54.469     0.039     0.000 .00000E+00 0.000E+00 0.000E+00 0.000E+00 0.000E+00 0.000E+00
BIGSUB  10        0    5.10773E-01   134.700     0.000   133.686    84.000   133.913    19.259     2.834    17.696    65.665     0.000     0.001     0.000     0.000     0.000     0.000    41.941     0.030     0.001 .00000E+00 0.000E+00 0.000E+00 0.000E+00 0.000E+00 0.000E+00
BIGSUB  11        0    5.26677E-01   134.700     0.000   133.686    87.950   108.497     8.560     4.104     8.328    60.760     0.001     0.002     0.000     0.000     0.001     0.000    46.277     0.031     0.000 .00000E+00 0.000E+00 0.000E+00 0.000E+00 0.000E+00 0.000E+00
BIGSUB   1        0    6.72643E-01   299.100     0.000    88.561    60.175    59.188     0.000    97.905     0.000   224.024     0.147     0.251     0.031     0.004     0.004     0.023   126.020     0.187     0.000 .00000E+00 0.000E+00 0.000E+00 0.000E+00 0.000E+00 0.000E+00
BIGSUB   2        0    6.84750E-01   299.100     0.000    88.590    60.412    61.559     0.000    99.696     0.000   222.907     0.145     0.257     0.032     0.004     0.004     0.024   123.093     0.183     0.000 .00000E+00 0.000E+00 0.000E+00 0.000E+00 0.000E+00 0.000E+00
BIGSUB   3        0    6.42478E-01   299.100     0.000    88.539    60.828    66.343     0.000   103.049     0.000   220.940     0.130     0.266     0.033     0.003     0.005     0.025   117.735     0.176     0.000 .00000E+00 0.000E+00 0.000E+00 0.000E+00 0.000E+00 0.000E+00
BIGSUB   4        0    6.68128E-01   299.100     0.000    88.557    60.449    59.906     0.000    99.464     0.000   223.088     0.137     0.242     0.030     0.004     0.005     0.023   123.513     0.180     0.000 .00000E+00 0.000E+00 0.000E+00 0.000E+00 0.000E+00 0.000E+00
BIGSUB   5        0    6.44632E-01   299.100     0.000    88.677    60.850    69.428     6.547    97.012     2.651   221.716     0.127     0.240     0.030     0.004     0.006     0.022   121.690     0.179     0.000 .00000E+00 0.000E+00 0.000E+00 0.000E+00 0.000E+00 0.000E+00
BIGSUB   6        0    6.85263E-01   299.100     0.000    88.690    62.950    88.895     6.361   111.988     2.713   213.188     0.133     0.335     0.041     0.003     0.006     0.031    97.939     0.147     0.000 .00000E+00 0.000E+00 0.000E+00 0.000E+00 0.000E+00 0.000E+00
BIGSUB   7        0    6.43914E-01   299.100     0.000    88.643    61.532    71.423     0.000   107.277     0.000   218.378     0.126     0.281     0.035     0.003     0.005     0.026   110.894     0.164     0.000 .00000E+00 0.000E+00 0.000E+00 0.000E+00 0.000E+00 0.000E+00
BIGSUB   8        0    6.34680E-01   299.100     0.000    88.684    61.015    67.322     0.263   105.343     0.164   220.598     0.313     0.344     0.042     0.004     0.005     0.033   114.916     0.172     0.000 .00000E+00 0.000E+00 0.000E+00 0.000E+00 0.000E+00 0.000E+00
BIGSUB   9        0    6.21649E-01   299.100     0.000    88.736    64.217   116.064    36.536   103.729    17.047   206.716     0.074     0.267     0.033     0.002     0.011     0.024    84.210     0.126     0.001 .00000E+00 0.000E+00 0.000E+00 0.000E+00 0.000E+00 0.000E+00
BIGSUB  10        0    6.10773E-01   299.100     0.000    88.761    65.526   138.555    59.183   104.724    28.113   200.750     0.050     0.240     0.029     0.002     0.014     0.021    65.220     0.098     0.002 .00000E+00 0.000E+00 0.000E+00 0.000E+00 0.000E+00 0.000E+00
BIGSUB  11        0    6.26677E-01   299.100     0.000    88.762    64.661   123.984    32.078   116.672    13.214   201.894     0.068     0.266     0.033     0.003     0.016     0.024    70.340     0.104     0.001 .00000E+00 0.000E+00 0.000E+00 0.000E+00 0.000E+00 0.000E+00
BIGSUB   1        0    7.72643E-01   248.800     0.000   103.069    73.213    71.777     0.000    14.778     0.000   163.314     0.034     0.068     0.008     0.001     0.001     0.006   148.459     0.196     0.000 .00000E+00 0.000E+00 0.000E+00 0.000E+00 0.000E+00 0.000E+00
BIGSUB   2        0    7.84750E-01   248.800     0.000   103.118    73.642    75.165     0.000    16.454     0.000   161.876     0.037     0.077     0.009     0.001     0.001     0.007   145.331     0.191     0.000 .00000E+00 0.000E+00 0.000E+00 0.000E+00 0.000E+00 0.000E+00
BIGSUB   3        0    7.42478E-01   248.800     0.000   103.033    74.557    81.816     0.000    19.690     0.000   159.113     0.039     0.094     0.012     0.002     0.001     0.009   139.302     0.183     0.000 .00000E+00 0.000E+00 0.000E+00 0.000E+00 0.000E+00 0.000E+00
BIGSUB   4        0    7.68128E-01   248.800     0.000   103.063    73.293    73.141     0.000    16.600     0.000   162.592     0.032     0.068     0.008     0.002     0.001     0.006   145.907     0.194     0.000 .00000E+00 0.000E+00 0.000E+00 0.000E+00 0.000E+00 0.000E+00
BIGSUB   5        0    7.44632E-01   248.800     0.000   103.259    73.618    79.510     8.691    12.750     4.231   161.181     0.026     0.055     0.007     0.001     0.001     0.005   143.858     0.192     0.000 .00000E+00 0.000E+00 0.000E+00 0.000E+00 0.000E+00 0.000E+00
BIGSUB   6        0    7.85263E-01   248.800     0.000   103.281    77.276    97.440    13.218    26.212     4.162   154.565     0.054     0.154     0.019     0.002     0.001     0.014   123.703     0.180     0.000 .00000E+00 0.000E+00 0.000E+00 0.000E+00 0.000E+00 0.000E+00
BIGSUB   7        0    7.43914E-01   248.800     0.000   103.205    75.811    88.800     0.000    24.141     0.000   155.982     0.045     0.118     0.015     0.002     0.001     0.011   131.681     0.173     0.000 .00000E+00 0.000E+00 0.000E+00 0.000E+00 0.000E+00 0.000E+00
BIGSUB   8        0    7.34680E-01   248.800     0.000   103.271    74.857    82.869     0.405    21.945     0.215   158.562     0.107     0.121     0.015     0.002     0.001     0.012   136.264     0.181     0.000 .00000E+00 0.000E+00 0.000E+00 0.000E+00 0.000E+00 0.000E+00
BIGSUB   9        0    7.21649E-01   248.800     0.000   103.357    77.761   123.706    46.707    14.846    24.642   143.001     0.021     0.070     0.009     0.001     0.001     0.006   101.833     0.140     0.003 .00000E+00 0.000E+00 0.000E+00 0.000E+00 0.000E+00 0.000E+00
BIGSUB  10        0    7.10773E-01   248.800     0.000   103.399    78.280   139.666    78.357    11.019    40.794   134.292     0.009     0.040     0.005     0.001     0.001     0.004    79.830     0.115     0.006 .00000E+00 0.000E+00 0.000E+00 0.000E+00 0.000E+00 0.000E+00
BIGSUB  11        0    7.26677E-01   248.800     0.000   103.400    78.101   124.866    51.771    24.248    21.894   141.528     0.025     0.095     0.012     0.002     0.003     0.009    93.780     0.147     0.003 .00000E+00 0.000E+00 0.000E+00 0.000E+00 0.000E+00 0.000E+00
BIGSUB   1        0    8.72643E-01   467.800     0.000   112.673    71.372    88.146     1.411   165.061     0.000   378.488     0.988     1.971     0.242     0.006     0.006     0.187   213.369     0.206     0.000 .00000E+00 0.000E+00 0.000E+00 0.000E+00 0.000E+00 0.000E+00
BIGSUB   2        0    8.84750E-01   467.800     0.000   112.717    71.749    88.088     3.344   170.592     0.000   379.642     0.990     2.050     0.252     0.006     0.006     0.194   208.979     0.214     0.000 .00000E+00 0.000E+00 0.000E+00 0.000E+00 0.000E+00 0.000E+00
BIGSUB   3        0    8.42478E-01   467.800     0.000   112.639    72.517    88.261     7.485   178.051     0.000   381.249     0.911     2.161     0.265     0.006     0.007     0.204   203.098     0.231     0.000 .00000E+00 0.000E+00 0.000E+00 0.000E+00 0.000E+00 0.000E+00
BIGSUB   4        0    8.68128E-01   467.800     0.000   112.667    71.404    88.190     2.491   169.244     0.000   378.707     0.922     1.900     0.234     0.007     0.008     0.180   209.396     0.207     0.000 .00000E+00 0.000E+00 0.000E+00 0.000E+00 0.000E+00 0.000E+00
BIGSUB   5        0    8.44632E-01   467.800     0.000   112.846    71.640    95.995    16.089   153.036     7.587   371.352     0.827     1.766     0.217     0.006     0.007     0.166   210.365     0.196     0.002 .00000E+00 0.000E+00 0.000E+00 0.000E+00 0.000E+00 0.000E+00
BIGSUB   6        0    8.85263E-01   467.800     0.000   112.866    73.528    95.446    32.921   172.807     8.593   372.333     0.840     2.410     0.296     0.005     0.008     0.227   190.394     0.246     0.002 .00000E+00 0.000E+00 0.000E+00 0.000E+00 0.000E+00 0.000E+00
BIGSUB   7        0    8.43914E-01   467.800     0.000   112.796    72.937    88.332    13.200   182.238     0.000   382.081     0.859     2.231     0.274     0.006     0.008     0.211   199.699     0.251     0.000 .00000E+00 0.000E+00 0.000E+00 0.000E+00 0.000E+00 0.000E+00
BIGSUB   8        0    8.34680E-01   467.800     0.000   112.857    72.691    88.137     8.788   181.581     0.342   381.313     1.093     2.183     0.268     0.007     0.007     0.207   199.271     0.233     0.000 .00000E+00 0.000E+00 0.000E+00 0.000E+00 0.000E+00 0.000E+00
BIGSUB   9        0    8.21649E-01   467.800     0.000   112.935    74.503   122.154    92.008   141.069    41.529   346.225     0.453     1.709     0.209     0.004     0.011     0.156   161.767     0.194     0.012 .00000E+00 0.000E+00 0.000E+00 0.000E+00 0.000E+00 0.000E+00
BIGSUB  10        0    8.10773E-01   467.800     0.000   112.974    75.069   141.441   138.349   125.136    68.660   324.299     0.269     1.335     0.163     0.003     0.014     0.119   127.543     0.134     0.021 .00000E+00 0.000E+00 0.000E+00 0.000E+00 0.000E+00 0.000E+00
BIGSUB  11        0    8.26677E-01   467.800     0.000   112.975    75.365   122.359    90.350   160.071    41.808   348.220     0.376     1.592     0.195     0.006     0.020     0.147   144.516     0.182     0.010 .00000E+00 0.000E+00 0.000E+00 0.000E+00 0.000E+00 0.000E+00
BIGSUB   1        0    9.72643E-01   166.700     0.000   150.444    80.774    78.500     0.346    19.930     0.000    95.558     0.294     0.481     0.059     0.002     0.001     0.046    75.575     0.049     0.000 .00000E+00 0.000E+00 0.000E+00 0.000E+00 0.000E+00 0.000E+00
BIGSUB   2        0    9.84750E-01   166.700     0.000   150.491    81.057    78.672     0.549    19.985     0.000    94.858     0.285     0.483     0.059     0.002     0.001     0.046    74.798     0.051     0.000 .00000E+00 0.000E+00 0.000E+00 0.000E+00 0.000E+00 0.000E+00
BIGSUB   3        0    9.42478E-01   166.700     0.000   150.408    81.652    79.256     0.987    19.990     0.000    93.450     0.247     0.483     0.059     0.002     0.001     0.046    73.335     0.054     0.000 .00000E+00 0.000E+00 0.000E+00 0.000E+00 0.000E+00 0.000E+00
BIGSUB   4        0    9.68128E-01   166.700     0.000   150.437    80.877    78.657     0.475    20.713     0.220    95.441     0.274     0.465     0.057     0.002     0.001     0.044    74.442     0.050     0.000 .00000E+00 0.000E+00 0.000E+00 0.000E+00 0.000E+00 0.000E+00
BIGSUB   5        0    9.44632E-01   166.700     0.000   150.629    81.565    86.871     3.488    18.327     9.709   101.168     0.251     0.427     0.052     0.002     0.001     0.040    72.725     0.047     0.002 .00000E+00 0.000E+00 0.000E+00 0.000E+00 0.000E+00 0.000E+00
BIGSUB   6        0    9.85263E-01   166.700     0.000   150.650    83.801    87.788     5.738    18.676    16.339   102.046     0.217     0.508     0.062     0.001     0.001     0.048    66.370     0.059     0.003 .00000E+00 0.000E+00 0.000E+00 0.000E+00 0.000E+00 0.000E+00
BIGSUB   7        0    9.43914E-01   166.700     0.000   150.576    82.327    79.783     1.567    20.462     0.000    91.794     0.228     0.492     0.060     0.002     0.001     0.046    71.139     0.057     0.000 .00000E+00 0.000E+00 0.000E+00 0.000E+00 0.000E+00 0.000E+00
BIGSUB   8        0    9.34680E-01   166.700     0.000   150.640    81.743    79.152     1.235    20.949     0.403    93.516     0.308     0.484     0.059     0.002     0.001     0.046    72.015     0.054     0.000 .00000E+00 0.000E+00 0.000E+00 0.000E+00 0.000E+00 0.000E+00
BIGSUB   9        0    9.21649E-01   166.700     0.000   150.724    86.143   115.040    20.238    13.221    52.265   122.143     0.110     0.309     0.038     0.001     0.001     0.029    54.494     0.047     0.015 .00000E+00 0.000E+00 0.000E+00 0.000E+00 0.000E+00 0.000E+00
BIGSUB  10        0    9.10773E-01   166.700     0.000   150.765    88.128   134.918    32.789    11.209    85.463   141.611     0.065     0.224     0.027     0.001     0.001     0.020    41.536     0.035     0.026 .00000E+00 0.000E+00 0.000E+00 0.000E+00 0.000E+00 0.000E+00
BIGSUB  11        0    9.26677E-01   166.700     0.000   150.766    88.277   114.918    20.152    17.108    54.483   122.623     0.092     0.308     0.038     0.002     0.002     0.029    48.897     0.048     0.013 .00000E+00 0.000E+00 0.000E+00 0.000E+00 0.000E+00 0.000E+00
BIGSUB   1        0   10.72643E-01   234.500     0.000   163.621    74.333    85.083     0.000    55.169     0.000   147.398     1.408     2.089     0.256     0.007     0.002     0.199    92.182     0.101     0.000 .00000E+00 0.000E+00 0.000E+00 0.000E+00 0.000E+00 0.000E+00
BIGSUB   2        0   10.84750E-01   234.500     0.000   163.663    74.663    85.771     0.000    55.595     0.000   146.646     1.365     2.113     0.259     0.006     0.002     0.201    90.979     0.103     0.000 .00000E+00 0.000E+00 0.000E+00 0.000E+00 0.000E+00 0.000E+00
BIGSUB   3        0   10.42478E-01   234.500     0.000   163.589    75.340    87.414     0.000    56.209     0.000   145.097     1.183     2.165     0.265     0.006     0.002     0.205    88.763     0.107     0.000 .00000E+00 0.000E+00 0.000E+00 0.000E+00 0.000E+00 0.000E+00
BIGSUB   4        0   10.68128E-01   234.500     0.000   163.616    74.477    85.409     0.000    56.781     0.037   147.260     1.313     2.040     0.250     0.007     0.002     0.194    90.381     0.101     0.000 .00000E+00 0.000E+00 0.000E+00 0.000E+00 0.000E+00 0.000E+00
BIGSUB   5        0   10.44632E-01   234.500     0.000   163.786    75.226    93.511     5.080    51.702     7.106   148.690     1.209     1.903     0.233     0.006     0.002     0.180    89.482     0.099     0.001 .00000E+00 0.000E+00 0.000E+00 0.000E+00 0.000E+00 0.000E+00
BIGSUB   6        0   10.85263E-01   234.500     0.000   163.805    78.060    99.046     5.261    55.050     8.610   143.520     1.022     2.288     0.280     0.005     0.002     0.216    79.197     0.107     0.001 .00000E+00 0.000E+00 0.000E+00 0.000E+00 0.000E+00 0.000E+00
BIGSUB   7        0   10.43914E-01   234.500     0.000   163.739    76.136    89.173     0.000    57.799     0.000   143.360     1.087     2.220     0.272     0.006     0.002     0.210    85.365     0.108     0.000 .00000E+00 0.000E+00 0.000E+00 0.000E+00 0.000E+00 0.000E+00
BIGSUB   8        0   10.34680E-01   234.500     0.000   163.797    75.407    87.364     0.233    57.761     0.304   145.193     1.227     2.144     0.263     0.007     0.002     0.203    86.977     0.106     0.000 .00000E+00 0.000E+00 0.000E+00 0.000E+00 0.000E+00 0.000E+00
BIGSUB   9        0   10.21649E-01   234.500     0.000   163.871    80.355   125.031    29.252    41.853    38.662   149.735     0.543     1.572     0.192     0.004     0.003     0.145    67.058     0.093     0.007 .00000E+00 0.000E+00 0.000E+00 0.000E+00 0.000E+00 0.000E+00
BIGSUB  10        0   10.10773E-01   234.500     0.000   163.907    82.534   144.489    47.436    37.583    63.310   156.188     0.335     1.224     0.150     0.003     0.004     0.109    51.897     0.073     0.012 .00000E+00 0.000E+00 0.000E+00 0.000E+00 0.000E+00 0.000E+00
BIGSUB  11        0   10.26677E-01   234.500     0.000   163.908    81.621   127.074    25.575    51.233    37.704   149.800     0.432     1.484     0.182     0.006     0.007     0.138    58.732     0.093     0.006 .00000E+00 0.000E+00 0.000E+00 0.000E+00 0.000E+00 0.000E+00
BIGSUB   1        0   11.72643E-01   180.900     0.000   149.997    75.220    83.128     0.000    28.152     0.000   108.372     1.320     1.662     0.204     0.003     0.001     0.159    80.184     0.092     0.000 .00000E+00 0.000E+00 0.000E+00 0.000E+00 0.000E+00 0.000E+00
BIGSUB   2        0   11.84750E-01   180.900     0.000   150.028    75.776    84.165     0.000    28.704     0.000   107.502     1.287     1.702     0.209     0.003     0.001     0.162    78.741     0.093     0.000 .00000E+00 0.000E+00 0.000E+00 0.000E+00 0.000E+00 0.000E+00
BIGSUB   3        0   11.42478E-01   180.900     0.000   149.973    76.654    86.535     0.000    29.645     0.000   105.966     1.123     1.789     0.219     0.003     0.001     0.170    76.221     0.095     0.000 .00000E+00 0.000E+00 0.000E+00 0.000E+00 0.000E+00 0.000E+00
BIGSUB   4        0   11.68128E-01   180.900     0.000   149.993    75.455    83.601     0.000    29.320     0.000   107.990     1.236     1.661     0.204     0.003     0.001     0.159    78.623     0.092     0.000 .00000E+00 0.000E+00 0.000E+00 0.000E+00 0.000E+00 0.000E+00
BIGSUB   5        0   11.44632E-01   180.900     0.000   150.119    76.070    91.670     3.547    25.998     4.940   109.120     1.126     1.523     0.187     0.003     0.001     0.145    77.833     0.090     0.001 .00000E+00 0.000E+00 0.000E+00 0.000E+00 0.000E+00 0.000E+00
BIGSUB   6        0   11.85263E-01   180.900     0.000   150.133    80.111   100.313     3.442    30.431     4.782   102.204     0.965     1.928     0.236     0.002     0.001     0.182    66.428     0.092     0.001 .00000E+00 0.000E+00 0.000E+00 0.000E+00 0.000E+00 0.000E+00
BIGSUB   7        0   11.43914E-01   180.900     0.000   150.084    77.669    89.099     0.000    31.297     0.000   104.219     1.037     1.879     0.230     0.003     0.001     0.178    72.764     0.095     0.000 .00000E+00 0.000E+00 0.000E+00 0.000E+00 0.000E+00 0.000E+00
BIGSUB   8        0   11.34680E-01   180.900     0.000   150.127    76.753    86.592     0.170    30.785     0.223   105.825     1.126     1.780     0.218     0.003     0.001     0.169    74.696     0.094     0.000 .00000E+00 0.000E+00 0.000E+00 0.000E+00 0.000E+00 0.000E+00
BIGSUB   9        0   11.21649E-01   180.900     0.000   150.182    82.562   125.116    20.432    21.587    27.809   108.140     0.515     1.369     0.168     0.002     0.002     0.126    56.836     0.082     0.005 .00000E+00 0.000E+00 0.000E+00 0.000E+00 0.000E+00 0.000E+00
BIGSUB  10        0   11.10773E-01   180.900     0.000   150.208    84.978   144.220    33.520    18.788    45.480   111.541     0.313     1.085     0.133     0.001     0.002     0.097    44.268     0.066     0.008 .00000E+00 0.000E+00 0.000E+00 0.000E+00 0.000E+00 0.000E+00
BIGSUB  11        0   11.26677E-01   180.900     0.000   150.209    82.027   127.668    19.991    28.550    24.988   105.556     0.404     1.335     0.164     0.003     0.004     0.124    50.156     0.086     0.004 .00000E+00 0.000E+00 0.000E+00 0.000E+00 0.000E+00 0.000E+00
BIGSUB   1        0   12.72643E-01   309.800     0.000   145.858    95.766    89.884     0.124    52.991     0.000   205.697     4.573     4.773     0.585     0.003     0.001     0.456   152.677     0.207     0.000 .00000E+00 0.000E+00 0.000E+00 0.000E+00 0.000E+00 0.000E+00
BIGSUB   2        0   12.84750E-01   309.800     0.000   145.869    96.160    90.086     0.969    54.091     0.000   205.277     4.433     4.893     0.600     0.002     0.002     0.468   151.139     0.216     0.000 .00000E+00 0.000E+00 0.000E+00 0.000E+00 0.000E+00 0.000E+00
BIGSUB   3        0   12.42478E-01   309.800     0.000   145.848    96.961    90.759     2.829    55.746     0.000   204.283     3.802     5.136     0.629     0.002     0.002     0.488   148.449     0.231     0.000 .00000E+00 0.000E+00 0.000E+00 0.000E+00 0.000E+00 0.000E+00
BIGSUB   4        0   12.68128E-01   309.800     0.000   145.856    95.980    90.007     0.617    55.029     0.000   205.377     4.285     4.869     0.597     0.003     0.002     0.466   150.309     0.210     0.000 .00000E+00 0.000E+00 0.000E+00 0.000E+00 0.000E+00 0.000E+00
BIGSUB   5        0   12.44632E-01   309.800     0.000   145.905    96.378    97.090     9.381    48.326     5.567   202.846     3.893     4.415     0.541     0.002     0.002     0.419   148.612     0.204     0.001 .00000E+00 0.000E+00 0.000E+00 0.000E+00 0.000E+00 0.000E+00
BIGSUB   6        0   12.85263E-01   309.800     0.000   145.910    99.825    99.766    17.812    54.322     5.535   196.950     2.989     5.203     0.637     0.002     0.002     0.491   136.554     0.252     0.001 .00000E+00 0.000E+00 0.000E+00 0.000E+00 0.000E+00 0.000E+00
BIGSUB   7        0   12.43914E-01   309.800     0.000   145.891    97.838    91.445     5.276    57.969     0.000   202.846     3.418     5.354     0.656     0.002     0.002     0.509   144.734     0.246     0.000 .00000E+00 0.000E+00 0.000E+00 0.000E+00 0.000E+00 0.000E+00
BIGSUB   8        0   12.34680E-01   309.800     0.000   145.908    97.072    90.543     3.553    57.724     0.253   204.014     3.709     5.110     0.626     0.003     0.002     0.486   145.928     0.231     0.000 .00000E+00 0.000E+00 0.000E+00 0.000E+00 0.000E+00 0.000E+00
BIGSUB   9        0   12.21649E-01   309.800     0.000   145.929   102.211   126.069    53.197    39.325    31.020   184.379     1.693     4.062     0.497     0.001     0.003     0.373   112.155     0.184     0.009 .00000E+00 0.000E+00 0.000E+00 0.000E+00 0.000E+00 0.000E+00
BIGSUB  10        0   12.10773E-01   309.800     0.000   145.939   104.498   145.380    83.576    33.196    50.967   172.726     1.046     3.332     0.407     0.001     0.003     0.297    85.589     0.126     0.016 .00000E+00 0.000E+00 0.000E+00 0.000E+00 0.000E+00 0.000E+00
BIGSUB  11        0   12.26677E-01   309.800     0.000   145.940   102.836   127.271    54.619    49.427    30.015   182.940     1.226     3.876     0.475     0.003     0.006     0.359   101.659     0.200     0.008 .00000E+00 0.000E+00 0.000E+00 0.000E+00 0.000E+00 0.000E+00
BIGSUB   1        0 2013.72643E-01  3096.300     0.000  1499.714   900.815    89.884    16.033   669.533     0.000  2169.897    24.906    43.176     5.280     0.031     0.026     4.197  1499.184     1.665     0.000 .00000E+00 0.000E+00 0.000E+00 0.000E+00 0.000E+00 0.000E+00
BIGSUB   2        0 2013.84750E-01  3096.300     0.000  1499.913   904.838    90.086    21.141   682.344     0.000  2161.113    23.738    42.722     5.225     0.031     0.028     4.150  1477.299     1.684     0.000 .00000E+00 0.000E+00 0.000E+00 0.000E+00 0.000E+00 0.000E+00
BIGSUB   3        0 2013.42478E-01  3096.300     0.000  1499.561   912.466    90.759    32.140   700.909    14.197  2157.131    19.799    41.624     5.090     0.030     0.030     4.028  1439.925     1.718     0.001 .00000E+00 0.000E+00 0.000E+00 0.000E+00 0.000E+00 0.000E+00
BIGSUB   4        0 2013.68128E-01  3096.300     0.000  1499.687   903.821    90.007    19.168   689.241     2.212  2166.363    23.108    41.174     5.037     0.035     0.035     4.002  1473.558     1.656     0.000 .00000E+00 0.000E+00 0.000E+00 0.000E+00 0.000E+00 0.000E+00
BIGSUB   5        0 2013.44632E-01  3096.301     0.000  1500.501   910.934    97.090    94.269   629.949    80.190  2167.128    21.742    39.770     4.863     0.030     0.033     3.849  1451.582     1.593     0.020 .00000E+00 0.000E+00 0.000E+00 0.000E+00 0.000E+00 0.000E+00
BIGSUB   6        0 2013.85263E-01  3096.300     0.000  1500.590   941.384    99.766   147.588   699.575   118.621  2123.013    14.680    38.015     4.648     0.024     0.037     3.651  1296.360     1.669     0.024 .00000E+00 0.000E+00 0.000E+00 0.000E+00 0.000E+00 0.000E+00
BIGSUB   7        0 2013.43914E-01  3096.300     0.000  1500.275   921.910    91.445    46.785   724.766    21.439  2141.122    17.164    39.866     4.876     0.031     0.037     3.851  1391.990     1.730     0.002 .00000E+00 0.000E+00 0.000E+00 0.000E+00 0.000E+00 0.000E+00
BIGSUB   8        0 2013.34680E-01  3096.300     0.000  1500.551   913.080    90.543    37.485   722.930    19.246  2156.751    19.823    41.132     5.030     0.034     0.032     3.982  1412.185     1.709     0.002 .00000E+00 0.000E+00 0.000E+00 0.000E+00 0.000E+00 0.000E+00
BIGSUB   9        0 2013.21649E-01  3096.300     0.000  1500.904   968.904   126.069   481.648   558.068   450.035  2111.861     8.642    28.644     3.502     0.020     0.048     2.685  1077.208     1.310     0.123 .00000E+00 0.000E+00 0.000E+00 0.000E+00 0.000E+00 0.000E+00
BIGSUB  10        0 2013.10773E-01  3096.300     0.000  1501.078   992.467   145.380   756.081   511.351   723.129  2103.258     5.707    23.409     2.861     0.016     0.060     2.137   827.340     0.949     0.208 .00000E+00 0.000E+00 0.000E+00 0.000E+00 0.000E+00 0.000E+00
BIGSUB  11        0 2013.26677E-01  3096.300     0.000  1501.083   982.142   127.271   474.906   670.490   444.255  2100.258     5.795    23.192     2.837     0.036     0.093     2.178   959.342     1.345     0.111 .00000E+00 0.000E+00 0.000E+00 0.000E+00 0.000E+00 0.000E+00
BIGSUB   1        0    1.72643E-01   549.600     0.000   142.773    95.725    87.981     9.103   177.113     0.000   452.975     9.089    27.347     3.340     0.004     0.010     2.672   275.804     0.405     0.000 .00000E+00 0.000E+00 0.000E+00 0.000E+00 0.000E+00 0.000E+00
BIGSUB   2        0    1.84750E-01   549.600     0.000   142.751    96.020    88.058    10.588   177.649     0.000   451.315     8.660    27.033     3.302     0.004     0.011     2.641   273.583     0.411     0.000 .00000E+00 0.000E+00 0.000E+00 0.000E+00 0.000E+00 0.000E+00
BIGSUB   3        0    1.42478E-01   549.600     0.000   142.789    96.574    88.233    13.878   177.733     0.000   447.971     7.182    25.700     3.139     0.004     0.011     2.503   270.099     0.421     0.000 .00000E+00 0.000E+00 0.000E+00 0.000E+00 0.000E+00 0.000E+00
BIGSUB   4        0    1.68128E-01   549.600     0.000   142.776    95.882    88.037     9.952   180.796     0.319   452.242     8.504    26.946     3.294     0.005     0.012     2.633   271.055     0.405     0.000 .00000E+00 0.000E+00 0.000E+00 0.000E+00 0.000E+00 0.000E+00
BIGSUB   5        0    1.44632E-01   549.600     0.000   142.687    96.407    96.437    26.427   165.717    10.253   444.645     7.971    25.166     3.074     0.004     0.011     2.448   268.247     0.372     0.005 .00000E+00 0.000E+00 0.000E+00 0.000E+00 0.000E+00 0.000E+00
BIGSUB   6        0    1.85263E-01   549.600     0.000   142.678    98.593    95.776    42.112   168.640    17.693   437.348     5.316    22.909     2.798     0.003     0.012     2.217   250.326     0.404     0.005 .00000E+00 0.000E+00 0.000E+00 0.000E+00 0.000E+00 0.000E+00
BIGSUB   7        0    1.43914E-01   549.600     0.000   142.712    97.156    88.434    17.999   180.152     2.391   446.064     6.263    24.900     3.043     0.004     0.012     2.422   263.312     0.426     0.000 .00000E+00 0.000E+00 0.000E+00 0.000E+00 0.000E+00 0.000E+00
BIGSUB   8        0    1.34680E-01   549.600     0.000   142.682    96.605    88.105    15.044   181.201     0.424   447.016     6.856    25.286     3.089     0.004     0.012     2.462   265.227     0.419     0.000 .00000E+00 0.000E+00 0.000E+00 0.000E+00 0.000E+00 0.000E+00
BIGSUB   9        0    1.21649E-01   549.600     0.000   142.643   100.709   122.818   116.240   129.476    56.611   401.243     3.194    17.465     2.134     0.002     0.013     1.651   212.896     0.303     0.028 .00000E+00 0.000E+00 0.000E+00 0.000E+00 0.000E+00 0.000E+00
BIGSUB  10        0    1.10773E-01   549.600     0.000   142.624   102.573   142.252   175.512   114.065    90.327   374.299     2.122    13.957     1.704     0.002     0.015     1.285   166.368     0.207     0.047 .00000E+00 0.000E+00 0.000E+00 0.000E+00 0.000E+00 0.000E+00
BIGSUB  11        0    1.26677E-01   549.600     0.000   142.624   101.107   123.340   114.675   153.186    57.846   403.448     2.213    15.226     1.864     0.005     0.022     1.441   190.191     0.310     0.027 .00000E+00 0.000E+00 0.000E+00 0.000E+00 0.000E+00 0.000E+00
BIGSUB   1        0    2.72643E-01   351.600     0.000   144.142    98.978    89.686     2.583    75.083     0.000   245.797     0.327     0.814     0.099     0.000     0.000     0.080   170.627     0.007     0.000 .00000E+00 0.000E+00 0.000E+00 0.000E+00 0.000E+00 0.000E+00
BIGSUB   2        0    2.84750E-01   351.600     0.000   144.120    99.108    89.680     3.315    75.837     0.000   245.041     0.312     0.817     0.100     0.000     0.001     0.080   169.091     0.007     0.000 .00000E+00 0.000E+00 0.000E+00 0.000E+00 0.000E+00 0.000E+00
BIGSUB   3        0    2.42478E-01   351.600     0.000   144.160    99.387    89.687     4.964    76.246     0.000   243.329     0.257     0.786     0.096     0.000     0.001     0.077   166.910     0.007     0.000 .00000E+00 0.000E+00 0.000E+00 0.000E+00 0.000E+00 0.000E+00
BIGSUB   4        0    2.68128E-01   351.600     0.000   144.146    98.812    89.710     3.030    77.676     0.472   246.079     0.310     0.853     0.104     0.000     0.001     0.083   167.829     0.007     0.000 .00000E+00 0.000E+00 0.000E+00 0.000E+00 0.000E+00 0.000E+00
BIGSUB   5        0    2.44632E-01   351.600     0.000   144.052    99.399    98.035    13.089    69.327    10.015   244.887     0.285     0.736     0.090     0.000     0.001     0.072   165.081     0.007     0.003 .00000E+00 0.000E+00 0.000E+00 0.000E+00 0.000E+00 0.000E+00
BIGSUB   6        0    2.85263E-01   351.600     0.000   144.042   100.421    96.691    20.879    72.476    18.812   245.903     0.185     0.683     0.083     0.000     0.001     0.066   153.874     0.008     0.004 .00000E+00 0.000E+00 0.000E+00 0.000E+00 0.000E+00 0.000E+00
BIGSUB   7        0    2.43914E-01   351.600     0.000   144.078    99.440    89.699     7.117    78.324     4.766   246.182     0.226     0.796     0.097     0.000     0.001     0.077   162.844     0.007     0.000 .00000E+00 0.000E+00 0.000E+00 0.000E+00 0.000E+00 0.000E+00
BIGSUB   8        0    2.34680E-01   351.600     0.000   144.046    99.057    89.525     5.715    78.808     0.411   243.422     0.339     0.878     0.107     0.001     0.001     0.086   164.005     0.008     0.000 .00000E+00 0.000E+00 0.000E+00 0.000E+00 0.000E+00 0.000E+00
BIGSUB   9        0    2.21649E-01   351.600     0.000   144.005   102.174   123.442    65.541    51.113    56.382   236.963     0.104     0.440     0.054     0.000     0.002     0.042   127.125     0.009     0.019 .00000E+00 0.000E+00 0.000E+00 0.000E+00 0.000E+00 0.000E+00
BIGSUB  10        0    2.10773E-01   351.600     0.000   143.985   103.679   142.512   102.098    42.927    87.971   231.417     0.065     0.308     0.038     0.000     0.003     0.029    96.874     0.008     0.032 .00000E+00 0.000E+00 0.000E+00 0.000E+00 0.000E+00 0.000E+00
BIGSUB  11        0    2.26677E-01   351.600     0.000   143.985   101.659   123.732    65.149    65.437    56.804   239.206     0.079     0.501     0.061     0.059     0.006     0.048   114.655     0.302     0.019 .00000E+00 0.000E+00 0.000E+00 0.000E+00 0.000E+00 0.000E+00
BIGSUB   1        0    3.72643E-01   222.800     0.000   167.193   129.038    54.653     0.000    39.212     0.000   132.619     0.016     0.034     0.004     0.000     0.000     0.003    93.299     0.002     0.000 .00000E+00 0.000E+00 0.000E+00 0.000E+00 0.000E+00 0.000E+00
BIGSUB   2        0    3.84750E-01   222.800     0.000   167.180   129.355    55.507     0.000    39.537     0.000   131.451     0.015     0.034     0.004     0.000     0.000     0.003    91.776     0.002     0.000 .00000E+00 0.000E+00 0.000E+00 0.000E+00 0.000E+00 0.000E+00
BIGSUB   3        0    3.42478E-01   222.800     0.000   167.202   130.032    56.539     0.297    39.778     0.000   129.482     0.012     0.031     0.004     0.000     0.001     0.003    89.496     0.002     0.000 .00000E+00 0.000E+00 0.000E+00 0.000E+00 0.000E+00 0.000E+00
BIGSUB   4        0    3.68128E-01   222.800     0.000   167.195   129.160    54.931     0.060    40.443     0.285   132.425     0.015     0.036     0.004     0.000     0.001     0.003    91.572     0.002     0.000 .00000E+00 0.000E+00 0.000E+00 0.000E+00 0.000E+00 0.000E+00
BIGSUB   5        0    3.44632E-01   222.800     0.000   167.144   129.861    63.300     4.072    36.601    11.035   139.407     0.014     0.031     0.004     0.000     0.001     0.003    91.218     0.002     0.002 .00000E+00 0.000E+00 0.000E+00 0.000E+00 0.000E+00 0.000E+00
BIGSUB   6        0    3.85263E-01   222.800     0.000   167.138   132.359    65.888     5.906    38.114    17.369   137.519     0.009     0.026     0.003     0.000     0.001     0.002    81.153     0.002     0.002 .00000E+00 0.000E+00 0.000E+00 0.000E+00 0.000E+00 0.000E+00
BIGSUB   7        0    3.43914E-01   222.800     0.000   167.158   130.640    57.279     0.908    40.792     3.451   130.990     0.011     0.031     0.004     0.000     0.001     0.003    86.450     0.002     0.000 .00000E+00 0.000E+00 0.000E+00 0.000E+00 0.000E+00 0.000E+00
BIGSUB   8        0    3.34680E-01   222.800     0.000   167.141   129.447    56.841     0.583    41.173     0.466   129.753     0.108     0.093     0.011     0.000     0.001     0.009    87.876     0.002     0.000 .00000E+00 0.000E+00 0.000E+00 0.000E+00 0.000E+00 0.000E+00
BIGSUB   9        0    3.21649E-01   222.800     0.000   167.118   134.865    94.772    23.396    28.333    61.554   163.672     0.005     0.020     0.002     0.000     0.001     0.002    71.005     0.002     0.009 .00000E+00 0.000E+00 0.000E+00 0.000E+00 0.000E+00 0.000E+00
BIGSUB  10        0    3.10773E-01   222.800     0.000   167.107   137.049   115.843    37.266    24.884    97.633   184.133     0.003     0.013     0.002     0.000     0.002     0.001    57.294     0.002     0.015 .00000E+00 0.000E+00 0.000E+00 0.000E+00 0.000E+00 0.000E+00
BIGSUB  11        0    3.26677E-01   222.800     0.000   167.107   136.073    95.420    22.195    35.367    61.372   162.253     0.004     0.024     0.003     0.000     0.003     0.002    62.771     0.029     0.011 .00000E+00 0.000E+00 0.000E+00 0.000E+00 0.000E+00 0.000E+00
BIGSUB   1        0    4.72643E-01   466.600     0.000   131.842   115.974    94.178     0.280    70.981     0.000   300.954     0.019     0.041     0.005     0.002     0.002     0.004   229.876     0.049     0.000 .00000E+00 0.000E+00 0.000E+00 0.000E+00 0.000E+00 0.000E+00
BIGSUB   2        0    4.84750E-01   466.600     0.000   131.848   116.197    94.090     1.405    74.199     0.000   300.303     0.019     0.042     0.005     0.002     0.002     0.004   225.980     0.050     0.000 .00000E+00 0.000E+00 0.000E+00 0.000E+00 0.000E+00 0.000E+00
BIGSUB   3        0    4.42478E-01   466.600     0.000   131.838   116.582    94.170     3.576    77.661     0.000   298.752     0.016     0.041     0.005     0.002     0.002     0.004   220.905     0.052     0.000 .00000E+00 0.000E+00 0.000E+00 0.000E+00 0.000E+00 0.000E+00
BIGSUB   4        0    4.68128E-01   466.600     0.000   131.841   116.156    94.145     0.843    74.806     0.042   300.692     0.018     0.043     0.005     0.002     0.002     0.004   225.731     0.047     0.000 .00000E+00 0.000E+00 0.000E+00 0.000E+00 0.000E+00 0.000E+00
BIGSUB   5        0    4.44632E-01   466.600     0.000   131.864   116.402   100.833    14.235    64.470     8.420   296.855     0.016     0.036     0.004     0.002     0.002     0.003   223.445     0.046     0.000 .00000E+00 0.000E+00 0.000E+00 0.000E+00 0.000E+00 0.000E+00
BIGSUB   6        0    4.85263E-01   466.600     0.000   131.867   117.820   101.166    24.177    78.591    10.099   290.066     0.011     0.034     0.004     0.002     0.003     0.003   200.558     0.052     0.001 .00000E+00 0.000E+00 0.000E+00 0.000E+00 0.000E+00 0.000E+00
BIGSUB   7        0    4.43914E-01   466.600     0.000   131.858   117.094    94.144     6.288    82.532     0.208   296.798     0.014     0.040     0.005     0.002     0.003     0.004   213.791     0.052     0.000 .00000E+00 0.000E+00 0.000E+00 0.000E+00 0.000E+00 0.000E+00
BIGSUB   8        0    4.34680E-01   466.600     0.000   131.865   116.288    94.005     4.610    81.677     0.382   299.059     0.197     0.133     0.016     0.002     0.002     0.013   216.785     0.054     0.000 .00000E+00 0.000E+00 0.000E+00 0.000E+00 0.000E+00 0.000E+00
BIGSUB   9        0    4.21649E-01   466.600     0.000   131.875   118.937   127.873    81.858    55.945    46.852   270.300     0.007     0.024     0.003     0.001     0.004     0.002   164.878     0.039     0.003 .00000E+00 0.000E+00 0.000E+00 0.000E+00 0.000E+00 0.000E+00
BIGSUB  10        0    4.10773E-01   466.600     0.000   131.880   119.769   147.075   130.100    48.003    76.423   254.340     0.004     0.015     0.002     0.001     0.005     0.001   125.823     0.027     0.005 .00000E+00 0.000E+00 0.000E+00 0.000E+00 0.000E+00 0.000E+00
BIGSUB  11        0    4.26677E-01   466.600     0.000   131.880   119.888   128.052    81.066    74.630    44.773   269.912     0.005     0.025     0.003     0.001     0.008     0.002   147.928     0.035     0.004 .00000E+00 0.000E+00 0.000E+00 0.000E+00 0.000E+00 0.000E+00
BIGSUB   1        0    5.72643E-01   221.200     0.000   141.484    77.736    91.859     0.814    42.279     0.000   154.033     0.022     0.042     0.005     0.005     0.002     0.004   111.671     0.131     0.000 .00000E+00 0.000E+00 0.000E+00 0.000E+00 0.000E+00 0.000E+00
BIGSUB   2        0    5.84750E-01   221.200     0.000   141.519    78.220    91.682     1.207    42.361     0.000   153.560     0.021     0.042     0.005     0.005     0.002     0.004   111.086     0.131     0.000 .00000E+00 0.000E+00 0.000E+00 0.000E+00 0.000E+00 0.000E+00
BIGSUB   3        0    5.42478E-01   221.200     0.000   141.457    78.535    91.933     2.067    42.632     0.000   152.315     0.017     0.040     0.005     0.005     0.002     0.004   109.505     0.131     0.000 .00000E+00 0.000E+00 0.000E+00 0.000E+00 0.000E+00 0.000E+00
BIGSUB   4        0    5.68128E-01   221.200     0.000   141.479    79.731    91.405     0.798    42.653     0.205   152.599     0.020     0.041     0.005     0.005     0.002     0.004   109.641     0.124     0.000 .00000E+00 0.000E+00 0.000E+00 0.000E+00 0.000E+00 0.000E+00
BIGSUB   5        0    5.44632E-01   221.200     0.000   141.622    78.711    99.997     5.588    38.946     9.249   157.007     0.019     0.038     0.005     0.005     0.002     0.003   108.281     0.122     0.000 .00000E+00 0.000E+00 0.000E+00 0.000E+00 0.000E+00 0.000E+00
BIGSUB   6        0    5.85263E-01   221.200     0.000   141.637    80.804    99.103    10.242    40.963    14.710   157.048     0.014     0.036     0.004     0.004     0.002     0.003   100.530     0.120     0.000 .00000E+00 0.000E+00 0.000E+00 0.000E+00 0.000E+00 0.000E+00
BIGSUB   7        0    5.43914E-01   221.200     0.000   141.582    80.256    91.626     3.079    43.051     2.295   152.064     0.015     0.038     0.005     0.004     0.002     0.004   106.455     0.125     0.000 .00000E+00 0.000E+00 0.000E+00 0.000E+00 0.000E+00 0.000E+00
BIGSUB   8        0    5.34680E-01   221.200     0.000   141.631    78.909    91.644     2.443    43.771     0.426   151.991     0.091     0.065     0.008     0.005     0.002     0.006   107.586     0.129     0.000 .00000E+00 0.000E+00 0.000E+00 0.000E+00 0.000E+00 0.000E+00
BIGSUB   9        0    5.21649E-01   221.200     0.000   141.693    83.425   125.827    32.996    31.374    52.224   172.503     0.008     0.026     0.003     0.003     0.003     0.002    86.162     0.095     0.003 .00000E+00 0.000E+00 0.000E+00 0.000E+00 0.000E+00 0.000E+00
BIGSUB  10        0    5.10773E-01   221.200     0.000   141.723    85.276   145.399    52.146    28.035    83.931   183.990     0.005     0.020     0.002     0.002     0.003     0.002    67.731     0.070     0.005 .00000E+00 0.000E+00 0.000E+00 0.000E+00 0.000E+00 0.000E+00
BIGSUB  11        0    5.26677E-01   221.200     0.000   141.724    91.816   125.661    29.178    36.381    51.461   166.152     0.006     0.024     0.003     0.002     0.004     0.002    75.613     0.076     0.003 .00000E+00 0.000E+00 0.000E+00 0.000E+00 0.000E+00 0.000E+00
BIGSUB   1        0    6.72643E-01   204.500     0.000   138.301    82.382    82.518     1.260    32.513     0.000   131.269     0.018     0.038     0.005     0.004     0.001     0.004    98.683     0.112     0.000 .00000E+00 0.000E+00 0.000E+00 0.000E+00 0.000E+00 0.000E+00
BIGSUB   2        0    6.84750E-01   204.500     0.000   138.343    82.769    82.420     1.634    32.552     0.000   130.444     0.017     0.038     0.005     0.004     0.001     0.003    97.788     0.112     0.000 .00000E+00 0.000E+00 0.000E+00 0.000E+00 0.000E+00 0.000E+00
BIGSUB   3        0    6.42478E-01   204.500     0.000   138.269    83.355    82.682     2.464    32.674     0.000   129.056     0.015     0.036     0.004     0.003     0.002     0.003    96.213     0.113     0.000 .00000E+00 0.000E+00 0.000E+00 0.000E+00 0.000E+00 0.000E+00
BIGSUB   4        0    6.68128E-01   204.500     0.000   138.296    83.165    82.532     1.217    33.206     0.004   130.062     0.017     0.037     0.005     0.004     0.002     0.003    96.765     0.108     0.000 .00000E+00 0.000E+00 0.000E+00 0.000E+00 0.000E+00 0.000E+00
BIGSUB   5        0    6.44632E-01   204.500     0.000   138.467    83.319    90.935     6.037    30.401     8.436   134.180     0.016     0.035     0.004     0.004     0.002     0.003    94.844     0.105     0.001 .00000E+00 0.000E+00 0.000E+00 0.000E+00 0.000E+00 0.000E+00
BIGSUB   6        0    6.85263E-01   204.500     0.000   138.486    85.806    90.019    10.119    30.946    12.755   132.143     0.012     0.034     0.004     0.003     0.002     0.003    87.626     0.105     0.001 .00000E+00 0.000E+00 0.000E+00 0.000E+00 0.000E+00 0.000E+00
BIGSUB   7        0    6.43914E-01   204.500     0.000   138.419    84.444    82.652     3.421    33.080     1.979   128.759     0.013     0.035     0.004     0.003     0.002     0.003    93.447     0.109     0.000 .00000E+00 0.000E+00 0.000E+00 0.000E+00 0.000E+00 0.000E+00
BIGSUB   8        0    6.34680E-01   204.500     0.000   138.477    83.590    82.431     2.812    33.746     0.386   128.837     0.067     0.053     0.006     0.004     0.002     0.005    94.505     0.111     0.000 .00000E+00 0.000E+00 0.000E+00 0.000E+00 0.000E+00 0.000E+00
BIGSUB   9        0    6.21649E-01   204.500     0.000   138.552    87.978   116.842    31.050    23.305    47.723   146.006     0.006     0.023     0.003     0.002     0.002     0.002    72.347     0.083     0.005 .00000E+00 0.000E+00 0.000E+00 0.000E+00 0.000E+00 0.000E+00
BIGSUB  10        0    6.10773E-01   204.500     0.000   138.588    89.834   136.474    49.142    20.522    77.025   156.977     0.004     0.017     0.002     0.002     0.002     0.002    55.309     0.062     0.008 .00000E+00 0.000E+00 0.000E+00 0.000E+00 0.000E+00 0.000E+00
BIGSUB  11        0    6.26677E-01   204.500     0.000   138.589    89.648   118.046    30.629    28.141    45.786   141.264     0.005     0.022     0.003     0.002     0.003     0.002    64.768     0.075     0.004 .00000E+00 0.000E+00 0.000E+00 0.000E+00 0.000E+00 0.000E+00
BIGSUB   1        0    7.72643E-01   729.100     0.000   111.625    64.609    95.724     5.394   448.631     0.000   627.905     1.037     2.007     0.247     0.012     0.019     0.187   179.201     0.277     0.000 .00000E+00 0.000E+00 0.000E+00 0.000E+00 0.000E+00 0.000E+00
BIGSUB   2        0    7.84750E-01   729.100     0.000   111.634    64.862    95.643     6.364   448.895     0.000   626.830     0.997     1.991     0.245     0.012     0.020     0.186   177.831     0.277     0.000 .00000E+00 0.000E+00 0.000E+00 0.000E+00 0.000E+00 0.000E+00
BIGSUB   3        0    7.42478E-01   729.100     0.000   111.617    65.411    95.721     8.501   449.100     0.000   624.612     0.847     1.919     0.236     0.011     0.021     0.179   175.340     0.276     0.000 .00000E+00 0.000E+00 0.000E+00 0.000E+00 0.000E+00 0.000E+00
BIGSUB   4        0    7.68128E-01   729.100     0.000   111.623    64.690    95.728     5.886   451.759     0.014   627.744     0.964     1.917     0.236     0.013     0.022     0.179   175.884     0.275     0.000 .00000E+00 0.000E+00 0.000E+00 0.000E+00 0.000E+00 0.000E+00
BIGSUB   5        0    7.44632E-01   729.100     0.000   111.664    65.282   104.087    19.816   437.581     6.650   618.542     0.914     1.909     0.235     0.012     0.025     0.177   173.820     0.264     0.001 .00000E+00 0.000E+00 0.000E+00 0.000E+00 0.000E+00 0.000E+00
BIGSUB   6        0    7.85263E-01   729.100     0.000   111.668    67.542   102.736    29.604   439.273    10.761   612.730     0.715     1.942     0.238     0.009     0.025     0.180   161.884     0.258     0.001 .00000E+00 0.000E+00 0.000E+00 0.000E+00 0.000E+00 0.000E+00
BIGSUB   7        0    7.43914E-01   729.100     0.000   111.653    65.968    95.724    11.107   451.000     1.843   623.819     0.762     1.869     0.230     0.011     0.023     0.174   170.721     0.274     0.000 .00000E+00 0.000E+00 0.000E+00 0.000E+00 0.000E+00 0.000E+00
BIGSUB   8        0    7.34680E-01   729.100     0.000   111.666    65.516    95.520     9.291   451.716     0.435   624.456     1.241     1.944     0.239     0.011     0.022     0.182   172.104     0.273     0.000 .00000E+00 0.000E+00 0.000E+00 0.000E+00 0.000E+00 0.000E+00
BIGSUB   9        0    7.21649E-01   729.100     0.000   111.684    69.536   129.457    90.932   398.955    42.958   578.746     0.437     1.650     0.202     0.007     0.038     0.148   134.234     0.204     0.006 .00000E+00 0.000E+00 0.000E+00 0.000E+00 0.000E+00 0.000E+00
BIGSUB  10        0    7.10773E-01   729.100     0.000   111.693    71.433   148.643   136.616   383.806    69.411   559.496     0.307     1.458     0.179     0.006     0.048     0.128   102.205     0.147     0.010 .00000E+00 0.000E+00 0.000E+00 0.000E+00 0.000E+00 0.000E+00
BIGSUB  11        0    7.26677E-01   729.100     0.000   111.693    70.103   129.794    85.790   422.649    40.603   585.292     0.333     1.390     0.171     0.011     0.055     0.125   119.501     0.191     0.005 .00000E+00 0.000E+00 0.000E+00 0.000E+00 0.000E+00 0.000E+00
BIGSUB   1        0    8.72643E-01   116.200     0.000   134.714    72.639    78.103     1.274     3.762     0.000    77.526     0.014     0.026     0.003     0.000     0.000     0.002    73.668     0.073     0.000 .00000E+00 0.000E+00 0.000E+00 0.000E+00 0.000E+00 0.000E+00
BIGSUB   2        0    8.84750E-01   116.200     0.000   134.710    72.932    78.349     1.412     3.791     0.000    76.679     0.014     0.026     0.003     0.000     0.000     0.002    72.761     0.072     0.000 .00000E+00 0.000E+00 0.000E+00 0.000E+00 0.000E+00 0.000E+00
BIGSUB   3        0    8.42478E-01   116.200     0.000   134.718    73.564    78.960     1.719     3.788     0.132    75.214     0.012     0.025     0.003     0.000     0.000     0.002    71.099     0.072     0.000 .00000E+00 0.000E+00 0.000E+00 0.000E+00 0.000E+00 0.000E+00
BIGSUB   4        0    8.68128E-01   116.200     0.000   134.715    72.751    78.311     1.378     4.093     0.272    77.023     0.013     0.026     0.003     0.001     0.000     0.002    72.549     0.073     0.000 .00000E+00 0.000E+00 0.000E+00 0.000E+00 0.000E+00 0.000E+00
BIGSUB   5        0    8.44632E-01   116.200     0.000   134.697    73.403    86.865     3.017     3.404     8.067    84.519     0.012     0.023     0.003     0.000     0.000     0.002    72.528     0.072     0.002 .00000E+00 0.000E+00 0.000E+00 0.000E+00 0.000E+00 0.000E+00
BIGSUB   6        0    8.85263E-01   116.200     0.000   134.695    75.949    87.815     4.390     3.478    15.108    84.401     0.010     0.024     0.003     0.000     0.000     0.002    64.972     0.067     0.002 .00000E+00 0.000E+00 0.000E+00 0.000E+00 0.000E+00 0.000E+00
BIGSUB   7        0    8.43914E-01   116.200     0.000   134.702    74.232    79.613     2.105     3.993     4.538    77.555     0.011     0.025     0.003     0.001     0.000     0.002    68.743     0.071     0.000 .00000E+00 0.000E+00 0.000E+00 0.000E+00 0.000E+00 0.000E+00
BIGSUB   8        0    8.34680E-01   116.200     0.000   134.695    73.650    78.920     1.868     4.313     3.774    78.174     0.041     0.027     0.003     0.001     0.000     0.003    69.863     0.071     0.000 .00000E+00 0.000E+00 0.000E+00 0.000E+00 0.000E+00 0.000E+00
BIGSUB   9        0    8.21649E-01   116.200     0.000   134.687    78.119   115.412    12.211     2.077    51.460   116.504     0.005     0.012     0.002     0.000     0.000     0.001    60.311     0.061     0.013 .00000E+00 0.000E+00 0.000E+00 0.000E+00 0.000E+00 0.000E+00
BIGSUB  10        0    8.10773E-01   116.200     0.000   134.683    80.130   135.463    19.747     1.567    79.505   135.760     0.003     0.007     0.001     0.000     0.000     0.001    50.555     0.051     0.022 .00000E+00 0.000E+00 0.000E+00 0.000E+00 0.000E+00 0.000E+00
BIGSUB  11        0    8.26677E-01   116.200     0.000   134.683    79.641   115.816    13.179     3.475    49.519   108.477     0.004     0.012     0.002     0.001     0.000     0.001    52.902     0.057     0.010 .00000E+00 0.000E+00 0.000E+00 0.000E+00 0.000E+00 0.000E+00
BIGSUB   1        0    9.72643E-01   109.600     0.000   137.645    55.996    75.899     0.000     8.906     0.000    56.395     0.107     0.195     0.024     0.002     0.000     0.018    47.391     0.056     0.000 .00000E+00 0.000E+00 0.000E+00 0.000E+00 0.000E+00 0.000E+00
BIGSUB   2        0    9.84750E-01   109.600     0.000   137.613    56.495    76.451     0.000     9.024     0.000    55.605     0.104     0.195     0.024     0.002     0.000     0.018    46.455     0.056     0.000 .00000E+00 0.000E+00 0.000E+00 0.000E+00 0.000E+00 0.000E+00
BIGSUB   3        0    9.42478E-01   109.600     0.000   137.669    56.964    77.337     0.000     9.181     0.005    54.902     0.090     0.192     0.024     0.001     0.000     0.018    45.530     0.062     0.000 .00000E+00 0.000E+00 0.000E+00 0.000E+00 0.000E+00 0.000E+00
BIGSUB   4        0    9.68128E-01   109.600     0.000   137.649    56.142    76.191     0.000     9.445     0.070    56.239     0.100     0.189     0.023     0.002     0.000     0.018    46.615     0.058     0.000 .00000E+00 0.000E+00 0.000E+00 0.000E+00 0.000E+00 0.000E+00
BIGSUB   5        0    9.44632E-01   109.600     0.000   137.520    56.587    84.934     1.374     8.276     5.278    59.756     0.093     0.175     0.021     0.001     0.000     0.016    45.728     0.056     0.001 .00000E+00 0.000E+00 0.000E+00 0.000E+00 0.000E+00 0.000E+00
BIGSUB   6        0    9.85263E-01   109.600     0.000   137.506    58.908    87.777     1.374     9.081     6.063    56.511     0.077     0.193     0.024     0.001     0.000     0.018    40.611     0.068     0.001 .00000E+00 0.000E+00 0.000E+00 0.000E+00 0.000E+00 0.000E+00
BIGSUB   7        0    9.43914E-01   109.600     0.000   137.556    57.427    78.388     0.000     9.680     0.666    54.748     0.082     0.192     0.024     0.001     0.000     0.018    44.143     0.067     0.000 .00000E+00 0.000E+00 0.000E+00 0.000E+00 0.000E+00 0.000E+00
BIGSUB   8        0    9.34680E-01   109.600     0.000   137.512    56.948    77.343     0.091     9.809     0.227    55.018     0.127     0.190     0.023     0.002     0.000     0.018    44.772     0.062     0.000 .00000E+00 0.000E+00 0.000E+00 0.000E+00 0.000E+00 0.000E+00
BIGSUB   9        0    9.21649E-01   109.600     0.000   137.456    61.446   115.699     8.617     6.346    23.972    65.651     0.040     0.123     0.015     0.001     0.000     0.011    32.963     0.054     0.004 .00000E+00 0.000E+00 0.000E+00 0.000E+00 0.000E+00 0.000E+00
BIGSUB  10        0    9.10773E-01   109.600     0.000   137.428    63.547   136.300    14.688     5.741    39.156    73.173     0.025     0.096     0.012     0.001     0.001     0.009    24.605     0.040     0.006 .00000E+00 0.000E+00 0.000E+00 0.000E+00 0.000E+00 0.000E+00
BIGSUB  11        0    9.26677E-01   109.600     0.000   137.427    63.094   116.553     7.729     9.031    22.393    62.779     0.033     0.119     0.015     0.001     0.001     0.011    29.060     0.053     0.003 .00000E+00 0.000E+00 0.000E+00 0.000E+00 0.000E+00 0.000E+00
BIGSUB   1        0   10.72643E-01    90.500     0.000   176.558    50.916    66.260     0.000     9.313     0.000    49.092     0.156     0.312     0.038     0.005     0.000     0.029    39.693     0.049     0.000 .00000E+00 0.000E+00 0.000E+00 0.000E+00 0.000E+00 0.000E+00
BIGSUB   2        0   10.84750E-01    90.500     0.000   176.540    51.317    66.737     0.000     9.486     0.000    48.794     0.152     0.314     0.039     0.005     0.000     0.030    39.199     0.052     0.000 .00000E+00 0.000E+00 0.000E+00 0.000E+00 0.000E+00 0.000E+00
BIGSUB   3        0   10.42478E-01    90.500     0.000   176.572    51.872    68.082     0.000     9.715     0.000    47.842     0.132     0.311     0.038     0.004     0.000     0.029    37.968     0.054     0.000 .00000E+00 0.000E+00 0.000E+00 0.000E+00 0.000E+00 0.000E+00
BIGSUB   4        0   10.68128E-01    90.500     0.000   176.561    51.065    66.611     0.000     9.849     0.000    48.898     0.146     0.302     0.037     0.005     0.000     0.028    38.952     0.049     0.000 .00000E+00 0.000E+00 0.000E+00 0.000E+00 0.000E+00 0.000E+00
BIGSUB   5        0   10.44632E-01    90.500     0.000   176.485    51.873    75.554     1.188     8.596     2.263    49.318     0.134     0.280     0.034     0.004     0.000     0.026    38.046     0.045     0.000 .00000E+00 0.000E+00 0.000E+00 0.000E+00 0.000E+00 0.000E+00
BIGSUB   6        0   10.85263E-01    90.500     0.000   176.477    54.300    79.859     1.188     9.773     2.252    45.698     0.113     0.312     0.038     0.004     0.000     0.029    33.024     0.053     0.000 .00000E+00 0.000E+00 0.000E+00 0.000E+00 0.000E+00 0.000E+00
BIGSUB   7        0   10.43914E-01    90.500     0.000   176.506    52.415    69.665     0.000    10.275     0.000    46.843     0.120     0.310     0.038     0.004     0.001     0.029    36.347     0.054     0.000 .00000E+00 0.000E+00 0.000E+00 0.000E+00 0.000E+00 0.000E+00
BIGSUB   8        0   10.34680E-01    90.500     0.000   176.481    51.886    68.190     0.065    10.301     0.126    47.814     0.154     0.305     0.037     0.005     0.000     0.029    37.206     0.053     0.000 .00000E+00 0.000E+00 0.000E+00 0.000E+00 0.000E+00 0.000E+00
BIGSUB   9        0   10.21649E-01    90.500     0.000   176.448    57.419   107.495     7.284     6.637    13.965    50.120     0.059     0.198     0.024     0.002     0.000     0.018    27.460     0.046     0.002 .00000E+00 0.000E+00 0.000E+00 0.000E+00 0.000E+00 0.000E+00
BIGSUB  10        0   10.10773E-01    90.500     0.000   176.432    60.076   128.307    11.924     5.875    23.197    53.196     0.037     0.153     0.019     0.002     0.001     0.014    20.929     0.035     0.003 .00000E+00 0.000E+00 0.000E+00 0.000E+00 0.000E+00 0.000E+00
BIGSUB  11        0   10.26677E-01    90.500     0.000   176.431    58.742   109.171     6.024     9.559    12.102    47.294     0.048     0.193     0.024     0.004     0.001     0.018    23.648     0.041     0.001 .00000E+00 0.000E+00 0.000E+00 0.000E+00 0.000E+00 0.000E+00
BIGSUB   1        0   11.72643E-01   332.200     0.000   134.732    86.447    85.445     0.000    51.787     0.000   226.268     1.669     2.813     0.345     0.003     0.002     0.266   174.416     0.309     0.000 .00000E+00 0.000E+00 0.000E+00 0.000E+00 0.000E+00 0.000E+00
BIGSUB   2        0   11.84750E-01   332.200     0.000   134.705    86.861    87.225     0.000    52.969     0.000   224.579     1.626     2.861     0.351     0.003     0.002     0.270   171.527     0.304     0.000 .00000E+00 0.000E+00 0.000E+00 0.000E+00 0.000E+00 0.000E+00
BIGSUB   3        0   11.42478E-01   332.200     0.000   134.752    87.711    88.762     1.027    55.137     0.000   222.559     1.414     2.959     0.363     0.003     0.002     0.278   167.302     0.305     0.000 .00000E+00 0.000E+00 0.000E+00 0.000E+00 0.000E+00 0.000E+00
BIGSUB   4        0   11.68128E-01   332.200     0.000   134.735    86.626    85.801     0.340    54.196     0.000   225.758     1.559     2.753     0.338     0.003     0.002     0.260   171.489     0.310     0.000 .00000E+00 0.000E+00 0.000E+00 0.000E+00 0.000E+00 0.000E+00
BIGSUB   5        0   11.44632E-01   332.200     0.000   134.627    86.995    92.782    10.366    48.021     2.762   220.320     1.437     2.580     0.316     0.003     0.002     0.242   169.195     0.303     0.001 .00000E+00 0.000E+00 0.000E+00 0.000E+00 0.000E+00 0.000E+00
BIGSUB   6        0   11.85263E-01   332.200     0.000   134.615    90.336    96.022    16.569    56.784     2.762   212.087     1.181     3.029     0.371     0.002     0.003     0.283   152.021     0.316     0.001 .00000E+00 0.000E+00 0.000E+00 0.000E+00 0.000E+00 0.000E+00
BIGSUB   7        0   11.43914E-01   332.200     0.000   134.657    88.551    88.855     3.199    58.726     0.000   221.100     1.299     3.034     0.372     0.003     0.003     0.285   162.207     0.316     0.000 .00000E+00 0.000E+00 0.000E+00 0.000E+00 0.000E+00 0.000E+00
BIGSUB   8        0   11.34680E-01   332.200     0.000   134.620    87.761    88.491     1.825    57.639     0.138   222.247     1.459     2.925     0.359     0.003     0.002     0.275   164.332     0.304     0.000 .00000E+00 0.000E+00 0.000E+00 0.000E+00 0.000E+00 0.000E+00
BIGSUB   9        0   11.21649E-01   332.200     0.000   134.573    91.674   122.875    57.851    40.391    16.107   184.572     0.654     2.155     0.264     0.002     0.003     0.197   126.343     0.248     0.004 .00000E+00 0.000E+00 0.000E+00 0.000E+00 0.000E+00 0.000E+00
BIGSUB  10        0   11.10773E-01   332.200     0.000   134.549    93.100   141.428    93.249    34.566    26.582   161.143     0.402     1.676     0.205     0.001     0.004     0.148    97.290     0.187     0.007 .00000E+00 0.000E+00 0.000E+00 0.000E+00 0.000E+00 0.000E+00
BIGSUB  11        0   11.26677E-01   332.200     0.000   134.549    90.326   123.476    59.593    52.946    14.296   183.361     0.493     1.975     0.242     0.003     0.007     0.181   114.458     0.249     0.003 .00000E+00 0.000E+00 0.000E+00 0.000E+00 0.000E+00 0.000E+00
BIGSUB   1        0   12.72643E-01   450.400     0.000   147.390    96.851    92.152     3.648   138.478     0.000   342.542     3.707     7.670     0.940     0.005     0.004     0.726   204.009     0.279     0.000 .00000E+00 0.000E+00 0.000E+00 0.000E+00 0.000E+00 0.000E+00
BIGSUB   2        0   12.84750E-01   450.400     0.000   147.375    97.126    92.182     5.166   139.946     0.000   342.521     3.568     7.724     0.947     0.005     0.004     0.730   202.504     0.293     0.000 .00000E+00 0.000E+00 0.000E+00 0.000E+00 0.000E+00 0.000E+00
BIGSUB   3        0   12.42478E-01   450.400     0.000   147.403    97.381    92.325     7.818   140.440     0.000   341.074     2.974     7.770     0.952     0.004     0.005     0.732   200.521     0.311     0.000 .00000E+00 0.000E+00 0.000E+00 0.000E+00 0.000E+00 0.000E+00
BIGSUB   4        0   12.68128E-01   450.400     0.000   147.393    96.906    92.203     4.289   141.584     0.005   342.174     3.461     7.536     0.924     0.005     0.005     0.713   200.520     0.281     0.000 .00000E+00 0.000E+00 0.000E+00 0.000E+00 0.000E+00 0.000E+00
BIGSUB   5        0   12.44632E-01   450.400     0.000   147.328    96.993   100.427    16.864   129.101     6.626   335.150     3.202     7.138     0.875     0.004     0.005     0.672   199.057     0.262     0.002 .00000E+00 0.000E+00 0.000E+00 0.000E+00 0.000E+00 0.000E+00
BIGSUB   6        0   12.85263E-01   450.400     0.000   147.320    98.190    99.732    28.037   133.457     7.325   327.710     2.227     7.282     0.891     0.003     0.006     0.681   186.364     0.312     0.003 .00000E+00 0.000E+00 0.000E+00 0.000E+00 0.000E+00 0.000E+00
BIGSUB   7        0   12.43914E-01   450.400     0.000   147.346    97.527    92.449    10.541   142.340     0.000   338.254     2.593     7.650     0.937     0.004     0.006     0.720   195.746     0.318     0.000 .00000E+00 0.000E+00 0.000E+00 0.000E+00 0.000E+00 0.000E+00
BIGSUB   8        0   12.34680E-01   450.400     0.000   147.324    97.306    92.082     8.696   143.132     0.298   340.573     2.915     7.627     0.934     0.005     0.005     0.718   197.010     0.309     0.000 .00000E+00 0.000E+00 0.000E+00 0.000E+00 0.000E+00 0.000E+00
BIGSUB   9        0   12.21649E-01   450.400     0.000   147.295    99.545   126.911    84.377   104.024    36.391   299.945     1.322     5.719     0.700     0.003     0.008     0.521   157.637     0.239     0.016 .00000E+00 0.000E+00 0.000E+00 0.000E+00 0.000E+00 0.000E+00
BIGSUB  10        0   12.10773E-01   450.400     0.000   147.281   100.579   146.380   129.264    92.083    59.955   277.715     0.872     4.674     0.572     0.002     0.010     0.413   122.702     0.166     0.027 .00000E+00 0.000E+00 0.000E+00 0.000E+00 0.000E+00 0.000E+00
BIGSUB  11        0   12.26677E-01   450.400     0.000   147.281    99.191   127.336    83.035   122.094    36.419   301.882     0.920     4.906     0.601     0.006     0.015     0.448   141.526     0.248     0.014 .00000E+00 0.000E+00 0.000E+00 0.000E+00 0.000E+00 0.000E+00
BIGSUB   1        0 2014.72643E-01  3844.300     0.000  1708.400  1027.292    92.152    24.354  1098.057     0.000  2797.374    16.180    41.341     5.057     0.042     0.042     3.995  1698.338     1.749     0.000 .00000E+00 0.000E+00 0.000E+00 0.000E+00 0.000E+00 0.000E+00
BIGSUB   2        0 2014.84750E-01  3844.300     0.000  1708.338  1031.260    92.182    31.092  1106.246     0.000  2787.121    15.505    41.117     5.030     0.041     0.043     3.972  1679.581     1.767     0.000 .00000E+00 0.000E+00 0.000E+00 0.000E+00 0.000E+00 0.000E+00
BIGSUB   3        0 2014.42478E-01  3844.300     0.000  1708.447  1037.369    92.325    46.310  1114.085     0.138  2767.106    12.968    39.810     4.869     0.039     0.047     3.832  1650.889     1.806     0.000 .00000E+00 0.000E+00 0.000E+00 0.000E+00 0.000E+00 0.000E+00
BIGSUB   4        0 2014.68128E-01  3844.300     0.000  1708.408  1031.086    92.203    27.793  1120.507     1.688  2791.935    15.129    40.679     4.979     0.044     0.051     3.932  1668.601     1.738     0.000 .00000E+00 0.000E+00 0.000E+00 0.000E+00 0.000E+00 0.000E+00
BIGSUB   5        0 2014.44632E-01  3844.301     0.000  1708.156  1035.233   100.427   122.072  1040.440    89.054  2784.587    14.112    38.144     4.666     0.040     0.052     3.668  1649.491     1.658     0.018 .00000E+00 0.000E+00 0.000E+00 0.000E+00 0.000E+00 0.000E+00
BIGSUB   6        0 2014.85263E-01  3844.300     0.000  1708.128  1061.028    99.732   194.596  1081.577   135.709  2739.164     9.871    36.503     4.463     0.031     0.055     3.490  1512.942     1.765     0.020 .00000E+00 0.000E+00 0.000E+00 0.000E+00 0.000E+00 0.000E+00
BIGSUB   7        0 2014.43914E-01  3844.300     0.000  1708.226  1045.150    92.449    65.764  1133.945    22.136  2763.177    11.409    38.920     4.761     0.038     0.053     3.743  1604.205     1.822     0.001 .00000E+00 0.000E+00 0.000E+00 0.000E+00 0.000E+00 0.000E+00
BIGSUB   8        0 2014.34680E-01  3844.300     0.000  1708.140  1036.963    92.082    53.043  1137.287     7.491  2768.361    13.595    39.527     4.834     0.043     0.049     3.807  1621.271     1.796     0.001 .00000E+00 0.000E+00 0.000E+00 0.000E+00 0.000E+00 0.000E+00
BIGSUB   9        0 2014.21649E-01  3844.300     0.000  1708.029  1085.827   126.911   612.354   877.977   506.199  2686.225     5.843    27.855     3.406     0.024     0.074     2.598  1273.360     1.383     0.110 .00000E+00 0.000E+00 0.000E+00 0.000E+00 0.000E+00 0.000E+00
BIGSUB  10        0 2014.10773E-01  3844.300     0.000  1707.974  1107.045   146.380   951.749   802.074   811.117  2645.639     3.848    22.394     2.737     0.020     0.093     2.032   987.683     1.004     0.187 .00000E+00 0.000E+00 0.000E+00 0.000E+00 0.000E+00 0.000E+00
BIGSUB  11        0 2014.26677E-01  3844.300     0.000  1707.973  1101.288   127.336   598.245  1012.896   493.375  2671.321     4.143    24.417     2.990     0.095     0.127     2.282  1137.021     1.666     0.105 .00000E+00 0.000E+00 0.000E+00 0.000E+00 0.000E+00 0.000E+00
BIGSUB   1        0    1.72643E-01   682.500     0.000   139.033   101.061    93.367    12.240   239.678     0.000   559.988    16.596    35.571     4.344     0.005     0.013     3.458   320.221     0.442     0.000 .00000E+00 0.000E+00 0.000E+00 0.000E+00 0.000E+00 0.000E+00
[...]
BIGSUB   6        0    8.85263E-01   160.100     0.000   189.732    81.420    84.902     2.417    11.252     1.395    75.357     0.027     0.079     0.010     0.002     0.001     0.007    61.957     0.115     0.000 .00000E+00 0.000E+00 0.000E+00 0.000E+00 0.000E+00 0.000E+00
BIGSUB   7        0    8.43914E-01   160.100     0.000   189.630    78.849    73.263     0.000    11.446     0.000    79.969     0.028     0.079     0.010     0.003     0.001     0.007    68.225     0.119     0.000 .00000E+00 0.000E+00 0.000E+00 0.000E+00 0.000E+00 0.000E+00
BIGSUB   8        0    8.34680E-01   160.100     0.000   189.719    78.132    71.826     0.144    11.684     0.083    81.541     0.069     0.087     0.011     0.003     0.001     0.008    69.523     0.115     0.000 .00000E+00 0.000E+00 0.000E+00 0.000E+00 0.000E+00 0.000E+00
BIGSUB   9        0    8.21649E-01   160.100     0.000   189.834    84.663   112.681    14.790     6.969     8.979    69.297     0.013     0.043     0.005     0.002     0.001     0.004    51.106     0.097     0.001 .00000E+00 0.000E+00 0.000E+00 0.000E+00 0.000E+00 0.000E+00
BIGSUB  10        0    8.10773E-01   160.100     0.000   189.890    87.692   133.994    24.911     6.286    14.660    62.862     0.008     0.031     0.004     0.001     0.001     0.003    38.495     0.074     0.001 .00000E+00 0.000E+00 0.000E+00 0.000E+00 0.000E+00 0.000E+00
BIGSUB  11        0    8.26677E-01   160.100     0.000   189.892    87.118   113.931    11.936    10.961     6.585    64.392     0.011     0.044     0.005     0.002     0.001     0.004    44.698     0.089     0.000 .00000E+00 0.000E+00 0.000E+00 0.000E+00 0.000E+00 0.000E+00
BIGSUB   1        0    9.72643E-01   167.200     0.000   114.347    71.928    73.233     0.000    10.501     0.000    91.869     0.087     0.232     0.028     0.001     0.000     0.022    81.260     0.127     0.000 .00000E+00 0.000E+00 0.000E+00 0.000E+00 0.000E+00 0.000E+00
BIGSUB   2        0    9.84750E-01   167.200     0.000   114.296    72.266    74.590     0.000    10.788     0.000    90.914     0.085     0.231     0.028     0.001     0.001     0.022    79.998     0.126     0.000 .00000E+00 0.000E+00 0.000E+00 0.000E+00 0.000E+00 0.000E+00
BIGSUB   3        0    9.42478E-01   167.200     0.000   114.387    73.035    77.513     0.000    11.330     0.000    89.043     0.074     0.219     0.027     0.001     0.001     0.021    77.545     0.124     0.000 .00000E+00 0.000E+00 0.000E+00 0.000E+00 0.000E+00 0.000E+00
BIGSUB   4        0    9.68128E-01   167.200     0.000   114.354    71.987    73.345     0.000    10.967     0.000    91.294     0.081     0.221     0.027     0.001     0.001     0.021    80.209     0.127     0.000 .00000E+00 0.000E+00 0.000E+00 0.000E+00 0.000E+00 0.000E+00
BIGSUB   5        0    9.44632E-01   167.200     0.000   114.144    72.463    82.389     3.467     9.646     2.416    90.666     0.074     0.203     0.025     0.001     0.001     0.019    78.209     0.124     0.000 .00000E+00 0.000E+00 0.000E+00 0.000E+00 0.000E+00 0.000E+00
BIGSUB   6        0    9.85263E-01   167.200     0.000   114.121    75.686    93.501     3.367    12.338     2.422    82.883     0.066     0.218     0.027     0.001     0.001     0.020    67.539     0.111     0.000 .00000E+00 0.000E+00 0.000E+00 0.000E+00 0.000E+00 0.000E+00
BIGSUB   7        0    9.43914E-01   167.200     0.000   114.203    73.716    80.456     0.000    12.186     0.000    86.918     0.068     0.215     0.026     0.001     0.001     0.020    74.512     0.120     0.000 .00000E+00 0.000E+00 0.000E+00 0.000E+00 0.000E+00 0.000E+00
BIGSUB   8        0    9.34680E-01   167.200     0.000   114.132    73.020    77.820     0.194    12.245     0.140    88.745     0.114     0.221     0.027     0.001     0.001     0.021    76.174     0.122     0.000 .00000E+00 0.000E+00 0.000E+00 0.000E+00 0.000E+00 0.000E+00
BIGSUB   9        0    9.21649E-01   167.200     0.000   114.040    76.738   119.087    19.880     8.006    15.331    81.498     0.033     0.127     0.016     0.001     0.001     0.012    56.323     0.098     0.002 .00000E+00 0.000E+00 0.000E+00 0.000E+00 0.000E+00 0.000E+00
BIGSUB  10        0    9.10773E-01   167.200     0.000   113.995    78.105   139.242    33.967     6.938    25.456    78.223     0.020     0.091     0.011     0.000     0.001     0.008    42.999     0.079     0.004 .00000E+00 0.000E+00 0.000E+00 0.000E+00 0.000E+00 0.000E+00
BIGSUB  11        0    9.26677E-01   167.200     0.000   113.994    77.702   121.888    19.524    11.860    12.555    76.449     0.028     0.127     0.015     0.001     0.001     0.012    50.297     0.092     0.002 .00000E+00 0.000E+00 0.000E+00 0.000E+00 0.000E+00 0.000E+00
BIGSUB   1        0   10.72643E-01   159.000     0.000   159.715    79.569    74.976     0.000     2.843     0.000    73.238     0.036     0.077     0.009     0.001     0.000     0.007    70.311     0.074     0.000 .00000E+00 0.000E+00 0.000E+00 0.000E+00 0.000E+00 0.000E+00
BIGSUB   2        0   10.84750E-01   159.000     0.000   159.670    80.355    76.324     0.000     3.142     0.000    72.434     0.038     0.084     0.010     0.001     0.000     0.008    69.193     0.078     0.000 .00000E+00 0.000E+00 0.000E+00 0.000E+00 0.000E+00 0.000E+00
BIGSUB   3        0   10.42478E-01   159.000     0.000   159.749    81.983    79.209     0.000     3.701     0.000    70.825     0.039     0.092     0.011     0.001     0.000     0.009    66.994     0.083     0.000 .00000E+00 0.000E+00 0.000E+00 0.000E+00 0.000E+00 0.000E+00
BIGSUB   4        0   10.68128E-01   159.000     0.000   159.721    79.824    75.292     0.000     3.356     0.000    72.829     0.034     0.078     0.010     0.001     0.000     0.007    69.381     0.076     0.000 .00000E+00 0.000E+00 0.000E+00 0.000E+00 0.000E+00 0.000E+00
BIGSUB   5        0   10.44632E-01   159.000     0.000   159.539    80.550    84.315     2.317     2.435     2.416    72.398     0.028     0.061     0.007     0.001     0.000     0.006    67.210     0.072     0.000 .00000E+00 0.000E+00 0.000E+00 0.000E+00 0.000E+00 0.000E+00
BIGSUB   6        0   10.85263E-01   159.000     0.000   159.519    86.494    95.971     2.288     5.103     2.393    66.344     0.046     0.121     0.015     0.002     0.000     0.011    58.366     0.095     0.000 .00000E+00 0.000E+00 0.000E+00 0.000E+00 0.000E+00 0.000E+00
BIGSUB   7        0   10.43914E-01   159.000     0.000   159.589    83.544    82.291     0.000     4.572     0.000    69.305     0.041     0.104     0.013     0.002     0.000     0.010    64.563     0.091     0.000 .00000E+00 0.000E+00 0.000E+00 0.000E+00 0.000E+00 0.000E+00
BIGSUB   8        0   10.34680E-01   159.000     0.000   159.528    82.201    79.480     0.158     4.606     0.140    70.694     0.071     0.097     0.012     0.002     0.000     0.009    65.802     0.083     0.000 .00000E+00 0.000E+00 0.000E+00 0.000E+00 0.000E+00 0.000E+00
BIGSUB   9        0   10.21649E-01   159.000     0.000   159.448    88.629   121.785    14.064     2.329    14.570    65.271     0.018     0.049     0.006     0.001     0.000     0.005    46.764     0.077     0.002 .00000E+00 0.000E+00 0.000E+00 0.000E+00 0.000E+00 0.000E+00
BIGSUB  10        0   10.10773E-01   159.000     0.000   159.410    90.734   142.434    24.659     1.883    24.598    63.427     0.008     0.029     0.004     0.001     0.000     0.003    34.440     0.058     0.003 .00000E+00 0.000E+00 0.000E+00 0.000E+00 0.000E+00 0.000E+00
BIGSUB  11        0   10.26677E-01   159.000     0.000   159.409    88.867   126.148    14.373     5.434    12.669    61.668     0.020     0.070     0.009     0.002     0.001     0.006    42.052     0.082     0.002 .00000E+00 0.000E+00 0.000E+00 0.000E+00 0.000E+00 0.000E+00
BIGSUB   1        0   11.72643E-01   334.500     0.000   145.021    82.685    76.482     0.000   101.067     0.000   255.161     2.207     5.322     0.651     0.005     0.004     0.504   154.033     0.309     0.000 .00000E+00 0.000E+00 0.000E+00 0.000E+00 0.000E+00 0.000E+00
BIGSUB   2        0   11.84750E-01   334.500     0.000   144.998    83.229    78.587     0.000   103.433     0.000   253.904     2.155     5.325     0.652     0.005     0.004     0.504   150.400     0.300     0.000 .00000E+00 0.000E+00 0.000E+00 0.000E+00 0.000E+00 0.000E+00
BIGSUB   3        0   11.42478E-01   334.500     0.000   145.039    84.395    82.808     0.000   107.664     0.000   251.464     1.866     5.183     0.634     0.005     0.005     0.490   143.707     0.282     0.000 .00000E+00 0.000E+00 0.000E+00 0.000E+00 0.000E+00 0.000E+00
BIGSUB   4        0   11.68128E-01   334.500     0.000   145.024    82.839    77.050     0.091   103.721     0.000   254.622     2.064     5.131     0.628     0.005     0.005     0.486   150.835     0.303     0.000 .00000E+00 0.000E+00 0.000E+00 0.000E+00 0.000E+00 0.000E+00
BIGSUB   5        0   11.44632E-01   334.500     0.000   144.929    83.082    83.666    10.055    95.435     3.810   250.941     1.896     4.817     0.590     0.005     0.005     0.454   151.402     0.307     0.001 .00000E+00 0.000E+00 0.000E+00 0.000E+00 0.000E+00 0.000E+00
BIGSUB   6        0   11.85263E-01   334.500     0.000   144.918    86.181    90.136    16.548   111.067     3.723   246.240     1.466     4.778     0.584     0.004     0.006     0.449   131.035     0.295     0.001 .00000E+00 0.000E+00 0.000E+00 0.000E+00 0.000E+00 0.000E+00
BIGSUB   7        0   11.43914E-01   334.500     0.000   144.955    84.984    83.142     2.315   112.723     0.000   251.188     1.674     5.047     0.618     0.005     0.005     0.476   138.338     0.286     0.000 .00000E+00 0.000E+00 0.000E+00 0.000E+00 0.000E+00 0.000E+00
BIGSUB   8        0   11.34680E-01   334.500     0.000   144.923    84.489    82.801     0.570   110.309     0.192   251.227     1.887     5.056     0.619     0.005     0.005     0.478   140.618     0.277     0.000 .00000E+00 0.000E+00 0.000E+00 0.000E+00 0.000E+00 0.000E+00
BIGSUB   9        0   11.21649E-01   334.500     0.000   144.881    87.653   116.294    55.646    88.090    21.986   224.895     0.865     3.512     0.429     0.003     0.007     0.321   113.366     0.236     0.008 .00000E+00 0.000E+00 0.000E+00 0.000E+00 0.000E+00 0.000E+00
BIGSUB  10        0   11.10773E-01   334.500     0.000   144.861    88.684   133.628    88.031    79.303    36.612   209.766     0.545     2.762     0.338     0.002     0.009     0.245    91.557     0.190     0.014 .00000E+00 0.000E+00 0.000E+00 0.000E+00 0.000E+00 0.000E+00
BIGSUB  11        0   11.26677E-01   334.500     0.000   144.860    86.344   116.802    56.151   104.136    20.298   227.237     0.613     2.927     0.358     0.004     0.012     0.267   101.422     0.235     0.007 .00000E+00 0.000E+00 0.000E+00 0.000E+00 0.000E+00 0.000E+00
BIGSUB   1        0   12.72643E-01   398.800     0.000   134.139    88.238    90.330     3.436    85.323     0.000   290.160     4.669     7.534     0.921     0.004     0.003     0.715   204.790     0.330     0.000 .00000E+00 0.000E+00 0.000E+00 0.000E+00 0.000E+00 0.000E+00
BIGSUB   2        0   12.84750E-01   398.800     0.000   134.104    88.691    90.258     5.038    87.507     0.000   290.314     4.508     7.541     0.922     0.004     0.003     0.715   202.750     0.344     0.000 .00000E+00 0.000E+00 0.000E+00 0.000E+00 0.000E+00 0.000E+00
BIGSUB   3        0   12.42478E-01   398.800     0.000   134.166    89.601    90.340     8.505    90.035     0.000   290.135     3.787     7.316     0.895     0.004     0.003     0.692   200.023     0.373     0.000 .00000E+00 0.000E+00 0.000E+00 0.000E+00 0.000E+00 0.000E+00
BIGSUB   4        0   12.68128E-01   398.800     0.000   134.144    88.379    90.335     4.202    88.373     0.000   289.878     4.378     7.441     0.911     0.004     0.003     0.705   201.451     0.332     0.000 .00000E+00 0.000E+00 0.000E+00 0.000E+00 0.000E+00 0.000E+00
BIGSUB   5        0   12.44632E-01   398.800     0.000   134.001    88.546    98.667    15.880    77.376     5.976   282.167     3.988     6.752     0.826     0.003     0.003     0.638   198.500     0.307     0.002 .00000E+00 0.000E+00 0.000E+00 0.000E+00 0.000E+00 0.000E+00
BIGSUB   6        0   12.85263E-01   398.800     0.000   133.985    90.884    97.349    28.297    84.890     5.739   275.358     2.694     6.282     0.768     0.003     0.004     0.592   184.270     0.368     0.002 .00000E+00 0.000E+00 0.000E+00 0.000E+00 0.000E+00 0.000E+00
BIGSUB   7        0   12.43914E-01   398.800     0.000   134.041    89.919    90.342    11.420    91.954     0.000   287.354     3.256     7.013     0.858     0.004     0.004     0.662   195.279     0.379     0.000 .00000E+00 0.000E+00 0.000E+00 0.000E+00 0.000E+00 0.000E+00
BIGSUB   8        0   12.34680E-01   398.800     0.000   133.992    89.567    90.066     9.516    92.664     0.272   289.767     3.710     7.132     0.872     0.004     0.003     0.675   196.737     0.373     0.000 .00000E+00 0.000E+00 0.000E+00 0.000E+00 0.000E+00 0.000E+00
BIGSUB   9        0   12.21649E-01   398.800     0.000   133.930    92.296   124.016    81.389    60.557    33.323   247.730     1.564     4.526     0.553     0.002     0.004     0.417   152.230     0.278     0.014 .00000E+00 0.000E+00 0.000E+00 0.000E+00 0.000E+00 0.000E+00
BIGSUB  10        0   12.10773E-01   398.800     0.000   133.900    93.382   143.165   124.725    50.248    54.930   223.577     0.982     3.446     0.421     0.002     0.005     0.308   115.827     0.186     0.024 .00000E+00 0.000E+00 0.000E+00 0.000E+00 0.000E+00 0.000E+00
BIGSUB  11        0   12.26677E-01   398.800     0.000   133.899    92.365   124.364    81.640    76.106    31.778   246.584     1.081     4.158     0.509     0.005     0.009     0.380   137.132     0.290     0.012 .00000E+00 0.000E+00 0.000E+00 0.000E+00 0.000E+00 0.000E+00
BIGSUB   1        0 2016.72643E-01  3003.700     0.000  1726.013   834.713    90.330    23.259   749.448     0.000  2153.796     7.593    14.538     1.779     0.037     0.024     1.380  1402.877     1.288     0.000 .00000E+00 0.000E+00 0.000E+00 0.000E+00 0.000E+00 0.000E+00
BIGSUB   2        0 2016.84750E-01  3003.700     0.000  1725.974   838.797    90.258    28.166   759.729     0.000  2145.140     7.359    14.533     1.778     0.037     0.024     1.379  1383.656     1.299     0.000 .00000E+00 0.000E+00 0.000E+00 0.000E+00 0.000E+00 0.000E+00
BIGSUB   3        0 2016.42478E-01  3003.700     0.000  1726.042   846.753    90.340    38.862   772.915    11.629  2138.623     6.248    14.056     1.719     0.035     0.027     1.330  1351.700     1.319     0.000 .00000E+00 0.000E+00 0.000E+00 0.000E+00 0.000E+00 0.000E+00
BIGSUB   4        0 2016.68128E-01  3003.700     0.000  1726.018   837.828    90.335    25.947   767.466     2.353  2150.462     7.119    14.239     1.743     0.038     0.028     1.350  1379.014     1.277     0.000 .00000E+00 0.000E+00 0.000E+00 0.000E+00 0.000E+00 0.000E+00
BIGSUB   5        0 2016.44632E-01  3003.701     0.000  1725.859   842.842    98.667   100.834   704.961    84.954  2157.849     6.500    13.060     1.598     0.035     0.029     1.234  1362.077     1.235     0.014 .00000E+00 0.000E+00 0.000E+00 0.000E+00 0.000E+00 0.000E+00
BIGSUB   6        0 2016.85263E-01  3003.700     0.000  1725.841   870.790    97.349   153.598   759.618   132.667  2127.585     4.640    12.467     1.524     0.029     0.033     1.175  1226.445     1.303     0.016 .00000E+00 0.000E+00 0.000E+00 0.000E+00 0.000E+00 0.000E+00
BIGSUB   7        0 2016.43914E-01  3003.700     0.000  1725.903   854.552    90.342    53.286   793.042    27.426  2132.949     5.469    13.580     1.661     0.034     0.031     1.283  1309.288     1.328     0.000 .00000E+00 0.000E+00 0.000E+00 0.000E+00 0.000E+00 0.000E+00
BIGSUB   8        0 2016.34680E-01  3003.700     0.000  1725.849   847.150    90.066    44.029   792.419    17.451  2139.222     6.951    14.336     1.753     0.038     0.028     1.362  1326.692     1.321     0.001 .00000E+00 0.000E+00 0.000E+00 0.000E+00 0.000E+00 0.000E+00
BIGSUB   9        0 2016.21649E-01  3003.700     0.000  1725.779   892.830   124.016   488.198   596.237   485.719  2144.828     2.680     8.915     1.090     0.022     0.043     0.819  1035.152     1.042     0.087 .00000E+00 0.000E+00 0.000E+00 0.000E+00 0.000E+00 0.000E+00
BIGSUB  10        0 2016.10773E-01  3003.700     0.000  1725.744   911.505   143.165   760.266   535.571   768.437  2152.405     1.675     6.840     0.836     0.018     0.055     0.610   805.612     0.779     0.147 .00000E+00 0.000E+00 0.000E+00 0.000E+00 0.000E+00 0.000E+00
BIGSUB  11        0 2016.26677E-01  3003.700     0.000  1725.743   907.630   124.364   475.578   706.552   464.153  2119.181     1.896     8.005     0.980     0.036     0.076     0.731   921.716     1.281     0.078 .00000E+00 0.000E+00 0.000E+00 0.000E+00 0.000E+00 0.000E+00
BIGSUB   1        0  4.0.72643E-01  3445.525     0.000  1685.472   925.661    90.330    23.835   915.440     0.000  2495.518    23.512    41.649     5.094     0.037     0.032     4.022  1578.845     1.652     0.000 .00000E+00 0.000E+00 0.000E+00 0.000E+00 0.000E+00 0.000E+00
BIGSUB   2        0  4.0.84750E-01  3445.525     0.000  1685.512   929.737    90.258    29.714   925.485     0.000  2485.936    22.532    41.536     5.081     0.036     0.033     4.008  1558.918     1.668     0.000 .00000E+00 0.000E+00 0.000E+00 0.000E+00 0.000E+00 0.000E+00
BIGSUB   3        0  4.0.42478E-01  3445.525     0.000  1685.442   937.071    90.340    42.675   937.581     9.397  2475.786    18.877    40.949     5.008     0.035     0.036     3.935  1526.614     1.699     0.000 .00000E+00 0.000E+00 0.000E+00 0.000E+00 0.000E+00 0.000E+00
BIGSUB   4        0  4.0.68128E-01  3445.525     0.000  1685.467   928.797    90.335    27.093   936.507     2.146  2491.499    21.945    40.819     4.995     0.039     0.039     3.939  1551.446     1.641     0.000 .00000E+00 0.000E+00 0.000E+00 0.000E+00 0.000E+00 0.000E+00
BIGSUB   5        0  4.0.44632E-01  3445.526     0.000  1685.630   934.009    98.667   112.832   864.894    86.769  2489.441    20.524    39.038     4.775     0.035     0.040     3.746  1532.050     1.573     0.019 .00000E+00 0.000E+00 0.000E+00 0.000E+00 0.000E+00 0.000E+00
BIGSUB   6        0  4.0.85263E-01  3445.525     0.000  1685.647   961.819    97.349   175.527   916.934   132.301  2448.083    14.236    38.439     4.699     0.028     0.044     3.661  1389.938     1.652     0.022 .00000E+00 0.000E+00 0.000E+00 0.000E+00 0.000E+00 0.000E+00
BIGSUB   7        0  4.0.43914E-01  3445.525     0.000  1685.585   945.419    90.342    59.588   959.070    24.624  2466.749    16.539    40.159     4.913     0.034     0.042     3.851  1480.003     1.709     0.001 .00000E+00 0.000E+00 0.000E+00 0.000E+00 0.000E+00 0.000E+00
BIGSUB   8        0  4.0.34680E-01  3445.525     0.000  1685.640   937.237    90.066    48.656   959.730    15.547  2476.144    19.047    40.725     4.980     0.038     0.038     3.915  1498.371     1.691     0.001 .00000E+00 0.000E+00 0.000E+00 0.000E+00 0.000E+00 0.000E+00
BIGSUB   9        0  4.0.21649E-01  3445.525     0.000  1685.709   985.540   124.016   556.637   734.914   491.843  2421.971     8.524    31.188     3.812     0.022     0.058     2.882  1167.060     1.298     0.116 .00000E+00 0.000E+00 0.000E+00 0.000E+00 0.000E+00 0.000E+00
BIGSUB  10        0  4.0.10773E-01  3445.525     0.000  1685.744  1005.447   143.165   866.531   667.937   785.468  2401.563     5.654    26.286     3.212     0.018     0.074     2.359   904.351     0.945     0.195 .00000E+00 0.000E+00 0.000E+00 0.000E+00 0.000E+00 0.000E+00
BIGSUB  11        0  4.0.26677E-01  3445.525     0.000  1685.745   999.096   124.364   544.365   860.118   479.251  2407.855     5.935    27.021     3.307     0.056     0.104     2.499  1040.955     1.488     0.107 .00000E+00 0.000E+00 0.000E+00 0.000E+00 0.000E+00 0.000E+00
