1
    SWAT Dec 23 2016    VER 2016/Rev 664                                                                 0/ 0/   0      0: 0: 0

    General Input/Output section (file.cio):                                        
    2/7/2020 21:47:35 QSWAT Workflow v1.5.2                                         
                                                                                    
         Number of years in run:   12
         Area of watershed:        1.917 km2
1
    SWAT Dec 23 2016    VER 2016/Rev 664                                            

    General Input/Output section (file.cio):                                        
    2/7/2020 21:47:35 QSWAT Workflow v1.5.2                                         
                                                                                    
Annual Summary for Watershed in year    1 of simulation

UNIT                                    PERCO    TILE                           WATER     SED     NO3     NO3     NO3     NO3        N       P       P
TIME     PREC    SURQ    LATQ     GWQ    LATE       Q     SW       ET     PET   YIELD   YIELD    SURQ    LATQ    PERC    CROP  ORGANIC SOLUBLE ORGANIC TILENO3
         (mm)    (mm)    (mm)    (mm)    (mm)    (mm)    (mm)    (mm)    (mm)    (mm)   (t/ha)  ------------------(kg nutrient/ha)-------------------- (kg/ha)
1
    SWAT Dec 23 2016    VER 2016/Rev 664                                            

    General Input/Output section (file.cio):                                        
    2/7/2020 21:47:35 QSWAT Workflow v1.5.2                                         
                                                                                    
Annual Summary for Watershed in year    2 of simulation

UNIT                                    PERCO    TILE                           WATER     SED     NO3     NO3     NO3     NO3        N       P       P
TIME     PREC    SURQ    LATQ     GWQ    LATE       Q     SW       ET     PET   YIELD   YIELD    SURQ    LATQ    PERC    CROP  ORGANIC SOLUBLE ORGANIC TILENO3
         (mm)    (mm)    (mm)    (mm)    (mm)    (mm)    (mm)    (mm)    (mm)    (mm)   (t/ha)  ------------------(kg nutrient/ha)-------------------- (kg/ha)
1
    SWAT Dec 23 2016    VER 2016/Rev 664                                            

    General Input/Output section (file.cio):                                        
    2/7/2020 21:47:35 QSWAT Workflow v1.5.2                                         
                                                                                    
Annual Summary for Watershed in year    3 of simulation

UNIT                                    PERCO    TILE                           WATER     SED     NO3     NO3     NO3     NO3        N       P       P
TIME     PREC    SURQ    LATQ     GWQ    LATE       Q     SW       ET     PET   YIELD   YIELD    SURQ    LATQ    PERC    CROP  ORGANIC SOLUBLE ORGANIC TILENO3
         (mm)    (mm)    (mm)    (mm)    (mm)    (mm)    (mm)    (mm)    (mm)    (mm)   (t/ha)  ------------------(kg nutrient/ha)-------------------- (kg/ha)
1
    SWAT Dec 23 2016    VER 2016/Rev 664                                            

    General Input/Output section (file.cio):                                        
    2/7/2020 21:47:35 QSWAT Workflow v1.5.2                                         
                                                                                    
Annual Summary for Watershed in year    4 of simulation

UNIT                                    PERCO    TILE                           WATER     SED     NO3     NO3     NO3     NO3        N       P       P
TIME     PREC    SURQ    LATQ     GWQ    LATE       Q     SW       ET     PET   YIELD   YIELD    SURQ    LATQ    PERC    CROP  ORGANIC SOLUBLE ORGANIC TILENO3
         (mm)    (mm)    (mm)    (mm)    (mm)    (mm)    (mm)    (mm)    (mm)    (mm)   (t/ha)  ------------------(kg nutrient/ha)-------------------- (kg/ha)
1
    SWAT Dec 23 2016    VER 2016/Rev 664                                            

    General Input/Output section (file.cio):                                        
    2/7/2020 21:47:35 QSWAT Workflow v1.5.2                                         
                                                                                    
Annual Summary for Watershed in year    5 of simulation

UNIT                                    PERCO    TILE                           WATER     SED     NO3     NO3     NO3     NO3        N       P       P
TIME     PREC    SURQ    LATQ     GWQ    LATE       Q     SW       ET     PET   YIELD   YIELD    SURQ    LATQ    PERC    CROP  ORGANIC SOLUBLE ORGANIC TILENO3
         (mm)    (mm)    (mm)    (mm)    (mm)    (mm)    (mm)    (mm)    (mm)    (mm)   (t/ha)  ------------------(kg nutrient/ha)-------------------- (kg/ha)
1
    SWAT Dec 23 2016    VER 2016/Rev 664                                            

    General Input/Output section (file.cio):                                        
    2/7/2020 21:47:35 QSWAT Workflow v1.5.2                                         
                                                                                    
Annual Summary for Watershed in year    6 of simulation

UNIT                                    PERCO    TILE                           WATER     SED     NO3     NO3     NO3     NO3        N       P       P
TIME     PREC    SURQ    LATQ     GWQ    LATE       Q     SW       ET     PET   YIELD   YIELD    SURQ    LATQ    PERC    CROP  ORGANIC SOLUBLE ORGANIC TILENO3
         (mm)    (mm)    (mm)    (mm)    (mm)    (mm)    (mm)    (mm)    (mm)    (mm)   (t/ha)  ------------------(kg nutrient/ha)-------------------- (kg/ha)
1
    SWAT Dec 23 2016    VER 2016/Rev 664                                            

    General Input/Output section (file.cio):                                        
    2/7/2020 21:47:35 QSWAT Workflow v1.5.2                                         
                                                                                    
Annual Summary for Watershed in year    7 of simulation

UNIT                                    PERCO    TILE                           WATER     SED     NO3     NO3     NO3     NO3        N       P       P
TIME     PREC    SURQ    LATQ     GWQ    LATE       Q     SW       ET     PET   YIELD   YIELD    SURQ    LATQ    PERC    CROP  ORGANIC SOLUBLE ORGANIC TILENO3
         (mm)    (mm)    (mm)    (mm)    (mm)    (mm)    (mm)    (mm)    (mm)    (mm)   (t/ha)  ------------------(kg nutrient/ha)-------------------- (kg/ha)
1
    SWAT Dec 23 2016    VER 2016/Rev 664                                            

    General Input/Output section (file.cio):                                        
    2/7/2020 21:47:35 QSWAT Workflow v1.5.2                                         
                                                                                    
Annual Summary for Watershed in year    8 of simulation

UNIT                                    PERCO    TILE                           WATER     SED     NO3     NO3     NO3     NO3        N       P       P
TIME     PREC    SURQ    LATQ     GWQ    LATE       Q     SW       ET     PET   YIELD   YIELD    SURQ    LATQ    PERC    CROP  ORGANIC SOLUBLE ORGANIC TILENO3
         (mm)    (mm)    (mm)    (mm)    (mm)    (mm)    (mm)    (mm)    (mm)    (mm)   (t/ha)  ------------------(kg nutrient/ha)-------------------- (kg/ha)
1
    SWAT Dec 23 2016    VER 2016/Rev 664                                            

    General Input/Output section (file.cio):                                        
    2/7/2020 21:47:35 QSWAT Workflow v1.5.2                                         
                                                                                    
Annual Summary for Watershed in year    9 of simulation

UNIT                                    PERCO    TILE                           WATER     SED     NO3     NO3     NO3     NO3        N       P       P
TIME     PREC    SURQ    LATQ     GWQ    LATE       Q     SW       ET     PET   YIELD   YIELD    SURQ    LATQ    PERC    CROP  ORGANIC SOLUBLE ORGANIC TILENO3
         (mm)    (mm)    (mm)    (mm)    (mm)    (mm)    (mm)    (mm)    (mm)    (mm)   (t/ha)  ------------------(kg nutrient/ha)-------------------- (kg/ha)
    1  576.60  154.85  288.79    9.65   26.52    0.00  100.77   88.53  117.38  453.74   10.44    0.00    0.42    0.52    0.00    24.21    0.01    2.96    0.00
    2  144.70   40.34   85.41   12.30    7.84    0.00   51.96   68.88  106.85  138.57    5.25    0.00    0.11    0.16    4.71     6.61    0.00    0.81    0.00
    3   93.80    0.00   35.24    8.01    0.00    0.00   25.54   84.96  115.44   43.82    0.00    0.00    0.00    0.00    0.75     0.00    0.00    0.00    0.00
    4  238.90   30.03  100.98    1.29    0.58    0.00   58.02   61.36  112.39  132.76    0.02    0.00    0.03    0.00    0.26     0.03    0.00    0.00    0.00
    5  134.70    2.03   70.68    0.77    0.81    0.00   56.31   75.69  133.59   73.89    0.00    0.00    0.05    0.00    0.00     0.00    0.00    0.00    0.00
    6  299.10  102.45  115.31    1.28    2.91    0.00   73.11   61.73   88.47  219.34    0.17    0.00    0.18    0.01    0.00     0.34    0.00    0.04    0.00
    7  248.80   18.13  139.26    1.97    6.24    0.00   83.24   75.25  102.93  159.62    0.05    0.00    0.20    0.04    0.00     0.11    0.00    0.01    0.00
    8  467.80  161.85  209.04    4.46   15.68    0.00   91.68   72.60  112.54  375.63    1.09    0.01    0.23    0.15    0.00     2.37    0.01    0.29    0.00
    9  166.70   18.35   71.92    7.21    2.71    0.00   83.08   82.57  150.30   97.80    0.30    0.00    0.05    0.03    0.00     0.50    0.00    0.06    0.00
   10  234.50   52.89   88.30    4.10    2.54    0.00   91.76   76.45  163.50  145.60    1.45    0.01    0.11    0.03    0.00     2.21    0.00    0.27    0.00
   11  180.90   27.70   75.03    2.01    1.73    0.00   91.12   77.77  149.90  105.02    1.35    0.00    0.10    0.02    0.00     1.75    0.00    0.21    0.00
   12  309.80   50.78  148.16    2.65    8.29    0.00   94.26   97.88  145.82  201.85    4.52    0.00    0.24    0.14    0.00     4.82    0.00    0.59    0.00

 2013 3096.30  659.40 1428.11   55.69   75.86    0.00   94.26  923.67 1499.12 2147.64   24.62    0.03    1.71    1.09    5.73    42.95    0.03    5.25    0.00
1
    SWAT Dec 23 2016    VER 2016/Rev 664                                            

    General Input/Output section (file.cio):                                        
    2/7/2020 21:47:35 QSWAT Workflow v1.5.2                                         
                                                                                    
Annual Summary for Watershed in year   10 of simulation

UNIT                                    PERCO    TILE                           WATER     SED     NO3     NO3     NO3     NO3        N       P       P
TIME     PREC    SURQ    LATQ     GWQ    LATE       Q     SW       ET     PET   YIELD   YIELD    SURQ    LATQ    PERC    CROP  ORGANIC SOLUBLE ORGANIC TILENO3
         (mm)    (mm)    (mm)    (mm)    (mm)    (mm)    (mm)    (mm)    (mm)    (mm)   (t/ha)  ------------------(kg nutrient/ha)-------------------- (kg/ha)
    1  549.60  168.10  268.10    7.90   23.05    0.00   92.88   97.57  142.84  444.44    9.03    0.00    0.40    0.43    0.00    27.04    0.01    3.30    0.00
    2  351.60   71.34  165.48    8.60   10.83    0.00   94.34  100.06  144.21  245.79    0.32    0.00    0.01    0.01    5.71     0.75    0.00    0.09    0.00
    3  222.80   37.55   88.27    8.31    2.90    0.00   60.94  130.86  167.23  134.58    0.02    0.00    0.00    0.00    1.04     0.03    0.00    0.00    0.00
    4  466.60   70.66  221.44    4.82   11.81    0.00   97.33  116.96  131.83  297.33    0.02    0.00    0.05    0.01    0.38     0.04    0.00    0.00    0.00
    5  221.20   39.91  107.09    6.89    4.89    0.00   95.83   79.28  141.38  154.33    0.02    0.00    0.13    0.01    0.00     0.04    0.00    0.01    0.00
    6  204.50   30.73   94.02    6.25    5.00    0.00   87.14   84.33  138.18  131.41    0.02    0.00    0.11    0.02    0.00     0.04    0.00    0.00    0.00
    7  729.10  439.91  176.97    5.12   16.19    0.00  100.40   66.28  111.59  622.33    1.13    0.01    0.28    0.12    0.00     2.37    0.02    0.29    0.00
    8  116.20    3.48   68.14    7.22    2.58    0.00   83.74   74.70  134.73   79.33    0.01    0.00    0.07    0.02    0.00     0.03    0.00    0.00    0.00
    9  109.60    8.66   44.41    2.84    0.58    0.00   82.46   57.64  137.74   56.30    0.11    0.00    0.06    0.01    0.00     0.21    0.00    0.03    0.00
   10   90.50    9.13   36.68    0.93    0.50    0.00   73.50   52.96  176.61   47.08    0.16    0.00    0.05    0.01    0.00     0.32    0.00    0.04    0.00
   11  332.20   51.93  166.32    1.22    7.76    0.00   90.73   88.64  134.81  219.73    1.74    0.00    0.33    0.12    0.00     2.99    0.00    0.37    0.00
   12  450.40  131.75  199.54    3.77   14.39    0.00   96.88   97.95  147.44  335.35    3.68    0.00    0.30    0.27    0.00     7.63    0.00    0.94    0.00

 2014 3844.30 1063.14 1636.44   63.86  100.48    0.00   96.88 1047.23 1708.58 2768.01   16.25    0.04    1.78    1.02    7.13    41.50    0.04    5.07    0.00
1
    SWAT Dec 23 2016    VER 2016/Rev 664                                            

    General Input/Output section (file.cio):                                        
    2/7/2020 21:47:35 QSWAT Workflow v1.5.2                                         
                                                                                    
Annual Summary for Watershed in year   11 of simulation

UNIT                                    PERCO    TILE                           WATER     SED     NO3     NO3     NO3     NO3        N       P       P
TIME     PREC    SURQ    LATQ     GWQ    LATE       Q     SW       ET     PET   YIELD   YIELD    SURQ    LATQ    PERC    CROP  ORGANIC SOLUBLE ORGANIC TILENO3
         (mm)    (mm)    (mm)    (mm)    (mm)    (mm)    (mm)    (mm)    (mm)    (mm)   (t/ha)  ------------------(kg nutrient/ha)-------------------- (kg/ha)
    1  682.50  229.53  312.66    9.50   29.78    0.00   98.04  101.98  139.13  552.08   16.43    0.00    0.43    0.59    0.00    35.37    0.01    4.32    0.00
    2  310.40   65.50  150.83   13.53    9.34    0.00   80.70  110.60  148.68  230.36    5.22    0.00    0.07    0.12    4.82     5.97    0.00    0.73    0.00
    3  174.40    6.33   68.49   10.81    0.75    0.00   79.34   99.94  136.39   86.21    0.00    0.00    0.00    0.00    1.01     0.00    0.00    0.00    0.00
    4  364.50  110.63  140.12    4.25    5.89    0.00   87.37  100.04  144.78  255.51    0.06    0.00    0.03    0.00    0.32     0.09    0.00    0.01    0.00
    5  421.40  101.83  204.23    6.53   15.61    0.00   96.51   90.15  126.03  313.08    0.07    0.01    0.18    0.04    0.00     0.12    0.00    0.02    0.00
    6  230.40   45.85  108.37    7.87    6.36    0.00   93.08   72.68  162.42  162.57    0.04    0.01    0.13    0.03    0.00     0.09    0.00    0.01    0.00
    7  101.30    2.83   43.11    4.47    0.91    0.00   76.19   72.42  169.80   50.88    0.00    0.00    0.04    0.01    0.00     0.01    0.00    0.00    0.00
    8  171.70   38.77   74.80    1.74    2.64    0.00   71.79   59.93  171.89  115.71    0.14    0.00    0.13    0.02    0.00     0.34    0.00    0.04    0.00
    9   30.50    0.00    8.22    0.98    0.00    0.00   63.93   30.13  151.14    9.52    0.00    0.00    0.02    0.00    0.00     0.00    0.00    0.00    0.00
   10  211.10   29.73  101.25    0.73    3.24    0.00   74.07   66.40  148.17  131.97    0.38    0.00    0.21    0.04    0.00     0.89    0.00    0.11    0.00
   11  541.90  199.80  228.40    1.38   17.19    0.00   94.58   74.08  148.97  429.80    7.66    0.00    0.41    0.28    0.00    13.53    0.01    1.66    0.00
   12  597.70  278.58  211.93    5.34   18.23    0.00   98.70   81.59  160.16  496.14   15.92    0.00    0.28    0.34    0.00    12.85    0.01    1.57    0.00

 2015 3837.80 1109.39 1652.40   67.12  109.94    0.00   98.70  959.94 1807.58 2833.84   45.92    0.03    1.92    1.46    6.16    69.26    0.04    8.47    0.00
1
    SWAT Dec 23 2016    VER 2016/Rev 664                                            

    General Input/Output section (file.cio):                                        
    2/7/2020 21:47:35 QSWAT Workflow v1.5.2                                         
                                                                                    
Annual Summary for Watershed in year   12 of simulation

UNIT                                    PERCO    TILE                           WATER     SED     NO3     NO3     NO3     NO3        N       P       P
TIME     PREC    SURQ    LATQ     GWQ    LATE       Q     SW       ET     PET   YIELD   YIELD    SURQ    LATQ    PERC    CROP  ORGANIC SOLUBLE ORGANIC TILENO3
         (mm)    (mm)    (mm)    (mm)    (mm)    (mm)    (mm)    (mm)    (mm)    (mm)   (t/ha)  ------------------(kg nutrient/ha)-------------------- (kg/ha)
    1  122.10    5.06   58.35   10.07    2.15    0.00   74.78   85.98  179.13   73.91    0.38    0.00    0.04    0.04    0.00     0.63    0.00    0.08    0.00
    2  182.20    6.75   83.68    5.32    1.19    0.00   72.58   92.48  176.45   96.15    0.00    0.00    0.00    0.00    6.00     0.01    0.00    0.00    0.00
    3  302.60   47.42  130.41    2.81    4.21    0.00   89.44  102.36  136.39  181.02    0.01    0.00    0.00    0.00    1.03     0.03    0.00    0.00    0.00
    4  986.50  425.05  412.18    7.28   43.73    0.00  101.22   80.31   98.98  844.87    0.10    0.01    0.11    0.03    0.23     0.39    0.01    0.05    0.00
    5   55.90   13.40   49.68   16.55    3.99    0.00   73.29   31.83  132.53   80.28    0.00    0.00    0.03    0.01    0.00     0.02    0.00    0.00    0.00
    6    2.60    0.00    0.40   10.46    0.00    0.00   63.62   11.85  133.40   11.47    0.00    0.00    0.01    0.00    0.00     0.00    0.00    0.00    0.00
    7  132.20   26.71   51.54    2.10    0.61    0.00   77.28   39.69  126.31   80.88    0.05    0.01    0.14    0.00    0.00     0.19    0.00    0.02    0.00
    8  160.10   10.06   68.47    0.56    1.06    0.00   77.53   79.63  189.25   79.51    0.04    0.00    0.11    0.01    0.00     0.09    0.00    0.01    0.00
    9  167.20   10.85   75.50    1.10    1.79    0.00   82.91   74.07  114.50   87.78    0.09    0.00    0.13    0.02    0.00     0.25    0.00    0.03    0.00
   10  159.00    3.48   65.15    1.02    0.98    0.00   85.04   83.13  159.85   69.91    0.04    0.00    0.09    0.01    0.00     0.09    0.00    0.01    0.00
   11  334.50  102.21  146.35    1.58    7.57    0.00   82.96   84.79  145.09  250.36    2.26    0.00    0.32    0.11    0.00     5.60    0.00    0.69    0.00
   12  398.80   81.11  198.72    2.92   14.21    0.00   94.97   89.89  134.24  282.97    4.47    0.00    0.35    0.27    0.00     7.17    0.00    0.88    0.00

 2016 3003.70  732.10 1340.45   61.77   81.51    0.00   94.97  856.01 1726.13 2139.10    7.45    0.03    1.32    0.50    7.27    14.47    0.03    1.77    0.00
1
    SWAT Dec 23 2016    VER 2016/Rev 664                                            

    General Input/Output section (file.cio):                                        
    2/7/2020 21:47:35 QSWAT Workflow v1.5.2                                         
                                                                                    
    FINAL VALUES

1
    SWAT Dec 23 2016    VER 2016/Rev 664                                            

    General Input/Output section (file.cio):                                        
    2/7/2020 21:47:35 QSWAT Workflow v1.5.2                                         
                                                                                    
                                            Average Plant Values (kg/ha)

  HRU       1 SUB   1 FRSE  Yld =  3657.7 BIOM =   5225.2
  HRU       2 SUB   1 FRSE  Yld =  4627.9 BIOM =   6611.3
  HRU       3 SUB   1 FRSE  Yld =  2504.5 BIOM =   3577.9
  HRU       4 SUB   1 FRSE  Yld =  2481.0 BIOM =   3544.3
  HRU       5 SUB   1 FRSE  Yld =  4797.1 BIOM =   6853.0
  HRU       6 SUB   2 FRSE  Yld =  5570.7 BIOM =   7958.2
  HRU       7 SUB   2 FRSE  Yld =  5209.1 BIOM =   7441.5
  HRU       8 SUB   3 FRSE  Yld =  3646.1 BIOM =   5208.7
  HRU       9 SUB   3 FRSE  Yld =  3985.5 BIOM =   5693.6
  HRU      10 SUB   3 FRSE  Yld =  4736.7 BIOM =   6766.7
  HRU      11 SUB   4 FRSE  Yld =  5173.5 BIOM =   7390.7
  HRU      12 SUB   5 FRSE  Yld =  3659.0 BIOM =   5227.1
  HRU      13 SUB   5 FRSE  Yld =  3993.0 BIOM =   5704.3
  HRU      14 SUB   5 FRSE  Yld =  2485.4 BIOM =   3550.6
  HRU      15 SUB   5 FRSE  Yld =  3953.7 BIOM =   5648.2
  HRU      16 SUB   6 FRSE  Yld =  2505.7 BIOM =   3579.5
  HRU      17 SUB   6 FRSE  Yld =  2477.4 BIOM =   3539.1
  HRU      18 SUB   6 FRSE  Yld =  4345.7 BIOM =   6208.1
  HRU      19 SUB   7 FRSE  Yld =  4242.5 BIOM =   6060.7
  HRU      20 SUB   7 FRSE  Yld =  2505.6 BIOM =   3579.5
  HRU      21 SUB   7 FRSE  Yld =  2484.3 BIOM =   3549.0
  HRU      22 SUB   7 FRSE  Yld =  4501.2 BIOM =   6430.3
  HRU      23 SUB   8 FRSE  Yld =  5058.7 BIOM =   7226.7
  HRU      24 SUB   9 FRSE  Yld =  2501.4 BIOM =   3573.4
  HRU      25 SUB   9 FRSE  Yld =  2482.2 BIOM =   3546.0
  HRU      26 SUB   9 FRSE  Yld =  5218.2 BIOM =   7454.6
  HRU      27 SUB  10 SWCH  Yld = 25572.4 BIOM =  44068.2
  HRU      28 SUB  10 SWCH  Yld = 25453.0 BIOM =  43834.3
  HRU      29 SUB  10 FRSE  Yld =  3998.1 BIOM =   5711.6
  HRU      30 SUB  10 FRSE  Yld =  4004.8 BIOM =   5721.1
  HRU      31 SUB  10 FRSE  Yld =  4694.5 BIOM =   6706.5
  HRU      32 SUB  10 FRSE  Yld =  5199.6 BIOM =   7428.0
  HRU      33 SUB  11 SWCH  Yld = 25581.5 BIOM =  44085.2
  HRU      34 SUB  11 FRSE  Yld =  5578.0 BIOM =   7968.6
  HRU      35 SUB  11 FRSE  Yld =  5210.8 BIOM =   7444.1

    HRU STATISTICS

                AVE ANNUAL VALUES

   HRU  SUB  SOIL       AREAkm2    CN     AWCmm   USLE_LS  IRRmm  AUTONkh AUTOPkh  MIXEF PRECmm SURQGENmm   GWQmm    ETmm   SEDth  NO3kgh  ORGNkgh BIOMth   YLDth  SURQmm
      1   1   OLOAVA     .103E-03   55.00  149.80    0.33    0.00    0.00    0.00    0.20 3445.52  512.11 1704.88 1095.98    0.55    0.09   11.96    5.23    3.66  512.11
      2   1   OLOAVA     .457E-01   55.00  149.80    6.05    0.00    0.00    0.00    0.20 3445.52  490.42 1859.08 1057.24   18.58    2.54   52.82    6.61    4.63  490.42
      3   1   FAGASA     .205E-03   70.00   97.20    0.07    0.00    0.00    0.00    0.20 3445.52 1009.51 1325.06  997.08    0.05    0.02    1.16    3.58    2.50 1007.67
      4   1   FAGASA     .821E-03   70.00   97.20    0.31    0.00    0.00    0.00    0.20 3445.52 1009.28 1326.47  996.75    0.94    0.04   12.28    3.54    2.48 1009.25
      5   1   FAGASA     .111E+00   70.00   97.20    5.92    0.00    0.00    0.00    0.20 3445.52  945.98 1521.16  942.58   19.64    1.74   41.20    6.85    4.80  945.98
      6   2   AUA        .585E-02   55.00  165.80    3.67    0.00    0.00    0.00    0.20 3445.52  501.28 1879.17 1007.16    2.49    1.72   20.96    7.96    5.57  501.28
      7   2   FAGASA     .135E+00   70.00   97.20   13.49    0.00    0.00    0.00    0.20 3445.52  893.68 1620.25  917.20   40.15    1.65   43.11    7.44    5.21  893.68
      8   3   OLOAVA     .205E-03   55.00  149.80    0.42    0.00    0.00    0.00    0.20 3445.52  512.01 1705.55 1095.94    0.80    0.11   16.25    5.21    3.65  512.01
      9   3   OLOAVA     .627E-01   55.00  149.80    2.56    0.00    0.00    0.00    0.20 3445.52  508.52 1774.65 1088.43    9.71    1.73   48.85    5.69    3.99  508.52
     10   3   FAGASA     .148E+00   70.00   97.20    5.65    0.00    0.00    0.00    0.20 3445.52  949.00 1515.32  944.76   19.72    1.75   41.25    6.77    4.74  949.00
     11   4   FAGASA     .185E+00   70.00   97.20    8.67    0.00    0.00    0.00    0.20 3445.52  908.55 1592.48  922.72   27.37    1.67   42.16    7.39    5.17  908.55
     12   5   OLOAVA     .103E-03   55.00  149.80    0.31    0.00    0.00    0.00    0.20 3445.52  512.17 1704.71 1095.98    0.52    0.09   11.41    5.23    3.66  512.16
     13   5   OLOAVA     .266E-01   55.00  149.80    2.59    0.00    0.00    0.00    0.20 3445.52  508.50 1775.27 1088.37    8.82    1.74   48.00    5.70    3.99  508.50
     14   5   FAGASA     .205E-03   70.00   97.20    0.33    0.00    0.00    0.00    0.20 3445.52 1009.13 1327.17  996.66    0.87    0.05   11.23    3.55    2.49 1009.12
     15   5   FAGASA     .178E+00   70.00   97.20    3.29    0.00    0.00    0.00    0.20 3445.52  971.70 1465.85  964.05   14.37    1.71   40.10    5.65    3.95  971.70
     16   6   FAGASA     .103E-03   70.00   97.20    0.07    0.00    0.00    0.00    0.20 3445.52 1009.51 1325.06  997.06    0.03    0.02    0.70    3.58    2.51 1007.67
     17   6   FAGASA     .513E-03   70.00   97.20    0.40    0.00    0.00    0.00    0.20 3445.52 1009.10 1327.52  996.55    1.22    0.06   14.65    3.54    2.48 1009.09
     18   6   FAGASA     .179E+00   70.00   97.20    4.30    0.00    0.00    0.00    0.20 3445.52  963.08 1486.77  955.66   16.96    1.74   40.75    6.21    4.35  963.08
     19   7   OLOAVA     .985E-02   55.00  149.80    3.88    0.00    0.00    0.00    0.20 3445.52  506.25 1798.71 1082.88   11.03    2.16   49.70    6.06    4.24  506.25
     20   7   FAGASA     .103E-03   70.00   97.20    0.07    0.00    0.00    0.00    0.20 3445.52 1009.51 1325.06  997.07    0.03    0.02    0.70    3.58    2.51 1007.67
     21   7   FAGASA     .103E-03   70.00   97.20    0.40    0.00    0.00    0.00    0.20 3445.52 1009.09 1327.50  996.59    0.96    0.06   12.05    3.55    2.48 1009.08
     22   7   FAGASA     .190E+00   70.00   97.20    4.78    0.00    0.00    0.00    0.20 3445.52  958.30 1496.89  951.72   18.24    1.75   41.01    6.43    4.50  958.30
     23   8   FAGASA     .583E-01   70.00   97.20    7.49    0.00    0.00    0.00    0.20 3445.52  926.07 1555.78  930.70   21.39    1.71   41.37    7.23    5.06  926.07
     24   9   FAGASA     .410E-03   70.00   97.20    0.08    0.00    0.00    0.00    0.20 3445.52 1009.50 1325.21  996.98    0.15    0.02    2.86    3.57    2.50 1009.16
     25   9   FAGASA     .616E-03   70.00   97.20    0.31    0.00    0.00    0.00    0.20 3445.52 1009.28 1326.47  996.70    0.90    0.04   11.90    3.55    2.48 1009.26
     26   9   FAGASA     .387E+00   70.00   97.20    9.47    0.00    0.00    0.00    0.20 3445.52  894.66 1616.92  917.35   31.95    1.65   42.57    7.45    5.22  894.66
     27  10   AUA        .103E-03   59.00  165.80    0.15    0.00  134.00    0.00    0.20 3445.52  619.87 1620.73 1069.48    0.00    0.31    0.00   39.32   25.57  619.82
     28  10   AUA        .103E-03   59.00  165.80    3.27    0.00  139.49    0.00    0.20 3445.52  601.85 1697.82 1065.49    0.02    8.94    0.22   39.12   25.45  601.85
     29  10   AUA        .205E-03   55.00  165.80    0.07    0.00    0.00    0.00    0.20 3445.52  515.72 1755.64 1036.88    0.01    0.01    0.17    5.71    4.00  515.04
     30  10   AUA        .205E-03   55.00  165.80    0.38    0.00    0.00    0.00    0.20 3445.52  515.32 1757.56 1036.65    0.21    0.04    3.16    5.72    4.00  515.32
     31  10   AUA        .872E-02   55.00  165.80    2.82    0.00    0.00    0.00    0.20 3445.52  509.36 1820.50 1025.18    2.48    1.05   21.63    6.71    4.69  509.36
     32  10   FAGASA     .168E+00   70.00   97.20    9.04    0.00    0.00    0.00    0.20 3445.52  901.84 1604.42  920.21   27.89    1.66   42.19    7.43    5.20  901.84
     33  11   AUA        .103E-03   59.00  165.80    1.28    0.00  134.75    0.00    0.20 3445.52  617.71 1629.35 1068.79    0.00    1.23    0.04   39.33   25.58  617.71
     34  11   AUA        .431E-02   55.00  165.80    3.71    0.00    0.00    0.00    0.20 3445.52  501.18 1879.75 1006.91    2.42    1.72   20.65    7.97    5.58  501.18
     35  11   FAGASA     .105E-01   70.00   97.20   16.40    0.00    0.00    0.00    0.20 3445.52  893.69 1621.00  917.17   35.99    1.66   42.87    7.44    5.21  893.69



                AVE MONTHLY BASIN VALUES
                   SNOW                      WATER               SED
  MON     RAIN     FALL   SURF Q    LAT Q    YIELD       ET    YIELD      PET
          (MM)     (MM)     (MM)     (MM)     (MM)     (MM)   (T/HA)     (MM)
    1   482.70     0.00   139.39   231.97   381.04    93.51     9.07   144.62
    2   253.79     0.00    47.21   124.57   182.44    95.47     2.77   147.87
    3   198.40     0.00    22.82    80.60   111.41   104.53     0.01   138.86
    4   514.12     0.00   159.09   218.68   382.62    89.67     0.05   122.00
    5   208.30     0.00    39.29   107.92   155.39    69.24     0.02   133.38
    6   184.15     0.00    44.76    79.53   131.20    57.65     0.06   130.62
    7   302.85     0.00   121.90   102.72   228.43    63.41     0.31   127.66
    8   228.95     0.00    53.54   105.11   162.55    71.71     0.32   152.10
    9   118.50     0.00     9.46    50.01    62.85    61.10     0.13   138.42
   10   173.78     0.00    23.81    72.85    98.64    69.74     0.51   162.03
   11   347.38     0.00    95.41   154.02   251.23    81.32     3.25   144.69
   12   439.18     0.00   135.55   189.59   329.08    91.83     7.15   146.92

     AVE ANNUAL BASIN STRESS DAYS
               WATER STRESS DAYS =     1.53
               TEMPERATURE STRESS DAYS =     0.07
               NITROGEN STRESS DAYS =    11.56
               PHOSPHORUS STRESS DAYS =     0.00
               AERATION STRESS DAYS =     0.00
1
    SWAT Dec 23 2016    VER 2016/Rev 664                                            

    General Input/Output section (file.cio):                                        
    2/7/2020 21:47:35 QSWAT Workflow v1.5.2                                         
                                                                                    
         AVE ANNUAL BASIN VALUES

              PRECIP =   3445.5 MM
              SNOW FALL =    0.00 MM
              SNOW MELT =     0.00 MM
              SUBLIMATION =     0.00 MM
              SURFACE RUNOFF Q =   891.01 MM
              LATERAL SOIL Q = 1514.35 MM
              TILE Q =     0.00 MM
              GROUNDWATER (SHAL AQ) Q =    62.11 MM
              GROUNDWATER (DEEP AQ) Q =     4.68 MM
              REVAP (SHAL AQ => SOIL/PLANTS) =   33.71 MM
              DEEP AQ RECHARGE =     4.55 MM
              TOTAL AQ RECHARGE =   91.10 MM
              TOTAL WATER YLD =  2472.15 MM
              PERCOLATION OUT OF SOIL =   91.95 MM
              ET =    946.7 MM
              PET =   1685.4MM
              TRANSMISSION LOSSES =     0.00 MM
              SEPTIC INFLOW =       0.00 MM
              TOTAL SEDIMENT LOADING =     23.56 T/HA
              TILE FROM IMPOUNDED WATER =     0.000 (MM)
              EVAPORATION FROM IMPOUNDED WATER =     0.000 (MM)
              SEEPAGE INTO SOIL FROM IMPOUNDED WATER =    0.000 (MM)
              OVERFLOW FROM IMPOUNDED WATER =    0.000 (MM)
1
    SWAT Dec 23 2016    VER 2016/Rev 664                                            

    General Input/Output section (file.cio):                                        
    2/7/2020 21:47:35 QSWAT Workflow v1.5.2                                         
                                                                                    
              AVE ANNUAL BASIN VALUES


              NUTRIENTS
                   ORGANIC N =    42.044 (KG/HA)
                   ORGANIC P =     5.142 (KG/HA)
                   NO3 YIELD (SQ) =     0.032 (KG/HA)
                   NO3 YIELD (LAT) =    1.681 (KG/HA)
                   NO3 YIELD (TILE) =    0.000 (KG/HA)
                   SOLP YIELD (TILE) =    0.000(KG/HA)
                   SOLP YIELD (SURF INLET RISER) =    0.000 (KG/HA)
                   SOL P YIELD =    0.033 (KG/HA)
                   NO3 LEACHED =     1.017 (KG/HA)
                   P LEACHED =     0.034 (KG/HA)
                   N UPTAKE =     6.573 (KG/HA)
                   P UPTAKE =    1.600 (KG/HA)
                   NO3 YIELD (GWQ) =     0.006 (KG/HA)
                   ACTIVE TO SOLUTION P FLOW =         0.238 (KG/HA)
                   ACTIVE TO STABLE P FLOW =         0.645 (KG/HA)
                   N FERTILIZER APPLIED =     0.022 (KG/HA)
                   P FERTILIZER APPLIED =     0.000 (KG/HA)
                   N FIXATION =     0.000 (KG/HA)
                   DENITRIFICATION =     0.000 (KG/HA)
                   HUMUS MIN ON ACTIVE ORG N =    11.924 (KG/HA)
                   ACTIVE TO STABLE ORG N =   -10.327 (KG/HA)
                   HUMUS MIN ON ACTIVE ORG P =    2.035 (KG/HA)
                   MIN FROM FRESH ORG N =    1.104 (KG/HA)
                   MIN FROM FRESH ORG P =    0.269 (KG/HA)
                   NO3 IN RAINFALL =     0.000 (KG/HA)
                   INITIAL NO3 IN SOIL =      36.820 (KG/HA)
                   FINAL NO3 IN SOIL =         5.060 (KG/HA)
                   INITIAL ORG N IN SOIL =   11075.071 (KG/HA)
                   FINAL ORG N IN SOIL =     10136.024 (KG/HA)
                   INITIAL MIN P IN SOIL =    1798.814 (KG/HA)
                   FINAL MIN P IN SOIL =      1727.356 (KG/HA)
                   INITIAL ORG P IN SOIL =    1356.696 (KG/HA)
                   FINAL ORG P IN SOIL =    1234.343 (KG/HA)
                   NO3 IN FERT =     0.022 (KG/HA)
                   AMMONIA IN FERT =     0.000 (KG/HA)
                   ORG N IN FERT =     0.000 (KG/HA)
                   MINERAL P IN FERT =     0.000 (KG/HA)
                   ORG P IN FERT =     0.000 (KG/HA)
                   N REMOVED IN YIELD =     5.257 (KG/HA)
                   P REMOVED IN YIELD =     1.280 (KG/HA)
                   AMMONIA VOLATILIZATION =     0.000 (KG/HA)
                   AMMONIA NITRIFICATION =      0.000 (KG/HA)
                   NO3 EVAP-LAYER 2 TO 1 =    3.138

                   DIE-GRO P Q =           0.0 (No/M2)
                   DIE-GRO LP Q =           0.0 (No/M2)
                   DIE-GRO P SED =          0.0 (No/M2)
                   DIE-GRO LP SED =          0.0 (No/M2)
                   BACT P RUNOFF =          0.0 (No/M2)
                   BACT LP RUNOFF =          0.0 (No/M2)
                   BACT P SEDIMENT =          0.0 (No/M2)
                   BACT LP SEDIMENT =          0.0 (No/M2)
                   BACT P INCORP =          0.0 (No/M2)
                   BACT LP INCORP =          0.0 (No/M2)

                   NITRATE SEPTIC =         0.00 (kg/ha)
                   AMMONIA SEPTIC =         0.00 (kg/ha)
                   ORG N SEPTIC =         0.00 (kg/ha)
                   FRESH ORGN SEPTIC =         0.00 (kg/ha)
                   ORG P SEPTIC =         0.00 (kg/ha)
                   FRESH ORGP SEPTIC =         0.00 (kg/ha)
                   SOL P SEPTIC =         0.00 (kg/ha)
                   BOD SEPTIC =         0.00 (kg/ha)
