1
    SWAT Dec 23 2016    VER 2016/Rev 664                                                                 0/ 0/   0      0: 0: 0

    General Input/Output section (file.cio):                                        
    2/7/2020 21:38:35 QSWAT Workflow v1.5.2                                         
                                                                                    
         Number of years in run:   12
         Area of watershed:        1.468 km2
1
    SWAT Dec 23 2016    VER 2016/Rev 664                                            

    General Input/Output section (file.cio):                                        
    2/7/2020 21:38:35 QSWAT Workflow v1.5.2                                         
                                                                                    
Annual Summary for Watershed in year    1 of simulation

UNIT                                    PERCO    TILE                           WATER     SED     NO3     NO3     NO3     NO3        N       P       P
TIME     PREC    SURQ    LATQ     GWQ    LATE       Q     SW       ET     PET   YIELD   YIELD    SURQ    LATQ    PERC    CROP  ORGANIC SOLUBLE ORGANIC TILENO3
         (mm)    (mm)    (mm)    (mm)    (mm)    (mm)    (mm)    (mm)    (mm)    (mm)   (t/ha)  ------------------(kg nutrient/ha)-------------------- (kg/ha)
1
    SWAT Dec 23 2016    VER 2016/Rev 664                                            

    General Input/Output section (file.cio):                                        
    2/7/2020 21:38:35 QSWAT Workflow v1.5.2                                         
                                                                                    
Annual Summary for Watershed in year    2 of simulation

UNIT                                    PERCO    TILE                           WATER     SED     NO3     NO3     NO3     NO3        N       P       P
TIME     PREC    SURQ    LATQ     GWQ    LATE       Q     SW       ET     PET   YIELD   YIELD    SURQ    LATQ    PERC    CROP  ORGANIC SOLUBLE ORGANIC TILENO3
         (mm)    (mm)    (mm)    (mm)    (mm)    (mm)    (mm)    (mm)    (mm)    (mm)   (t/ha)  ------------------(kg nutrient/ha)-------------------- (kg/ha)
1
    SWAT Dec 23 2016    VER 2016/Rev 664                                            

    General Input/Output section (file.cio):                                        
    2/7/2020 21:38:35 QSWAT Workflow v1.5.2                                         
                                                                                    
Annual Summary for Watershed in year    3 of simulation

UNIT                                    PERCO    TILE                           WATER     SED     NO3     NO3     NO3     NO3        N       P       P
TIME     PREC    SURQ    LATQ     GWQ    LATE       Q     SW       ET     PET   YIELD   YIELD    SURQ    LATQ    PERC    CROP  ORGANIC SOLUBLE ORGANIC TILENO3
         (mm)    (mm)    (mm)    (mm)    (mm)    (mm)    (mm)    (mm)    (mm)    (mm)   (t/ha)  ------------------(kg nutrient/ha)-------------------- (kg/ha)
1
    SWAT Dec 23 2016    VER 2016/Rev 664                                            

    General Input/Output section (file.cio):                                        
    2/7/2020 21:38:35 QSWAT Workflow v1.5.2                                         
                                                                                    
Annual Summary for Watershed in year    4 of simulation

UNIT                                    PERCO    TILE                           WATER     SED     NO3     NO3     NO3     NO3        N       P       P
TIME     PREC    SURQ    LATQ     GWQ    LATE       Q     SW       ET     PET   YIELD   YIELD    SURQ    LATQ    PERC    CROP  ORGANIC SOLUBLE ORGANIC TILENO3
         (mm)    (mm)    (mm)    (mm)    (mm)    (mm)    (mm)    (mm)    (mm)    (mm)   (t/ha)  ------------------(kg nutrient/ha)-------------------- (kg/ha)
1
    SWAT Dec 23 2016    VER 2016/Rev 664                                            

    General Input/Output section (file.cio):                                        
    2/7/2020 21:38:35 QSWAT Workflow v1.5.2                                         
                                                                                    
Annual Summary for Watershed in year    5 of simulation

UNIT                                    PERCO    TILE                           WATER     SED     NO3     NO3     NO3     NO3        N       P       P
TIME     PREC    SURQ    LATQ     GWQ    LATE       Q     SW       ET     PET   YIELD   YIELD    SURQ    LATQ    PERC    CROP  ORGANIC SOLUBLE ORGANIC TILENO3
         (mm)    (mm)    (mm)    (mm)    (mm)    (mm)    (mm)    (mm)    (mm)    (mm)   (t/ha)  ------------------(kg nutrient/ha)-------------------- (kg/ha)
1
    SWAT Dec 23 2016    VER 2016/Rev 664                                            

    General Input/Output section (file.cio):                                        
    2/7/2020 21:38:35 QSWAT Workflow v1.5.2                                         
                                                                                    
Annual Summary for Watershed in year    6 of simulation

UNIT                                    PERCO    TILE                           WATER     SED     NO3     NO3     NO3     NO3        N       P       P
TIME     PREC    SURQ    LATQ     GWQ    LATE       Q     SW       ET     PET   YIELD   YIELD    SURQ    LATQ    PERC    CROP  ORGANIC SOLUBLE ORGANIC TILENO3
         (mm)    (mm)    (mm)    (mm)    (mm)    (mm)    (mm)    (mm)    (mm)    (mm)   (t/ha)  ------------------(kg nutrient/ha)-------------------- (kg/ha)
1
    SWAT Dec 23 2016    VER 2016/Rev 664                                            

    General Input/Output section (file.cio):                                        
    2/7/2020 21:38:35 QSWAT Workflow v1.5.2                                         
                                                                                    
Annual Summary for Watershed in year    7 of simulation

UNIT                                    PERCO    TILE                           WATER     SED     NO3     NO3     NO3     NO3        N       P       P
TIME     PREC    SURQ    LATQ     GWQ    LATE       Q     SW       ET     PET   YIELD   YIELD    SURQ    LATQ    PERC    CROP  ORGANIC SOLUBLE ORGANIC TILENO3
         (mm)    (mm)    (mm)    (mm)    (mm)    (mm)    (mm)    (mm)    (mm)    (mm)   (t/ha)  ------------------(kg nutrient/ha)-------------------- (kg/ha)
1
    SWAT Dec 23 2016    VER 2016/Rev 664                                            

    General Input/Output section (file.cio):                                        
    2/7/2020 21:38:35 QSWAT Workflow v1.5.2                                         
                                                                                    
Annual Summary for Watershed in year    8 of simulation

UNIT                                    PERCO    TILE                           WATER     SED     NO3     NO3     NO3     NO3        N       P       P
TIME     PREC    SURQ    LATQ     GWQ    LATE       Q     SW       ET     PET   YIELD   YIELD    SURQ    LATQ    PERC    CROP  ORGANIC SOLUBLE ORGANIC TILENO3
         (mm)    (mm)    (mm)    (mm)    (mm)    (mm)    (mm)    (mm)    (mm)    (mm)   (t/ha)  ------------------(kg nutrient/ha)-------------------- (kg/ha)
1
    SWAT Dec 23 2016    VER 2016/Rev 664                                            

    General Input/Output section (file.cio):                                        
    2/7/2020 21:38:35 QSWAT Workflow v1.5.2                                         
                                                                                    
Annual Summary for Watershed in year    9 of simulation

UNIT                                    PERCO    TILE                           WATER     SED     NO3     NO3     NO3     NO3        N       P       P
TIME     PREC    SURQ    LATQ     GWQ    LATE       Q     SW       ET     PET   YIELD   YIELD    SURQ    LATQ    PERC    CROP  ORGANIC SOLUBLE ORGANIC TILENO3
         (mm)    (mm)    (mm)    (mm)    (mm)    (mm)    (mm)    (mm)    (mm)    (mm)   (t/ha)  ------------------(kg nutrient/ha)-------------------- (kg/ha)
    1  576.60  191.88  269.13    0.47    7.38    0.00   90.77   88.16  117.36  461.51   15.64    0.01    0.38    0.14    0.00    24.25    0.02    2.96    0.00
    2  144.70   50.34   80.57    0.88    2.69    0.00   45.02   65.76  106.81  131.95    7.77    0.00    0.11    0.07    5.02     5.81    0.00    0.71    0.00
    3   93.80    2.49   36.76    0.54    0.02    0.00   18.22   81.32  115.39   39.93    0.09    0.00    0.00    0.00    0.77     0.00    0.00    0.00    0.00
    4  238.90   38.21  100.06    0.05    0.18    0.00   46.50   58.11  112.38  138.33    0.68    0.00    0.02    0.00    0.27     0.06    0.00    0.01    0.00
    5  134.70    7.13   71.24    0.04    0.23    0.00   37.73   77.91  133.61   78.60    0.10    0.00    0.04    0.00    0.06     0.00    0.00    0.00    0.00
    6  299.10  106.31  117.39    0.05    0.13    0.00   51.09   61.98   88.53  223.83    1.11    0.00    0.16    0.00    0.00     0.26    0.01    0.03    0.00
    7  248.80   25.39  139.12    0.07    0.20    0.00   60.95   74.46  103.02  164.64    0.33    0.00    0.18    0.00    0.02     0.06    0.00    0.01    0.00
    8  467.80  176.48  202.00    0.11    1.04    0.00   76.60   72.43  112.62  378.64    2.37    0.01    0.19    0.01    0.00     1.86    0.01    0.23    0.00
    9  166.70   23.34   70.65    0.14    0.19    0.00   68.18   81.20  150.39   94.18    0.71    0.00    0.04    0.00    0.00     0.44    0.00    0.05    0.00
   10  234.50   60.45   86.31    0.10    0.22    0.00   74.89   74.95  163.58  146.85    2.40    0.01    0.09    0.00    0.00     1.92    0.00    0.24    0.00
   11  180.90   32.08   75.22    0.07    0.10    0.00   73.34   75.76  149.96  107.42    2.10    0.00    0.08    0.00    0.00     1.57    0.00    0.20    0.00
   12  309.80   61.79  143.58    0.08    0.49    0.00   79.27   96.56  145.84  205.48    6.94    0.00    0.20    0.01    0.00     4.53    0.00    0.56    0.00

 2013 3096.30  775.91 1392.03    2.61   12.86    0.00   79.27  908.59 1499.49 2171.35   40.25    0.04    1.52    0.23    6.15    40.78    0.05    5.00    0.00
1
    SWAT Dec 23 2016    VER 2016/Rev 664                                            

    General Input/Output section (file.cio):                                        
    2/7/2020 21:38:35 QSWAT Workflow v1.5.2                                         
                                                                                    
Annual Summary for Watershed in year   10 of simulation

UNIT                                    PERCO    TILE                           WATER     SED     NO3     NO3     NO3     NO3        N       P       P
TIME     PREC    SURQ    LATQ     GWQ    LATE       Q     SW       ET     PET   YIELD   YIELD    SURQ    LATQ    PERC    CROP  ORGANIC SOLUBLE ORGANIC TILENO3
         (mm)    (mm)    (mm)    (mm)    (mm)    (mm)    (mm)    (mm)    (mm)    (mm)   (t/ha)  ------------------(kg nutrient/ha)-------------------- (kg/ha)
    1  549.60  201.61  250.34    0.15    4.72    0.00   80.70   97.36  142.80  452.18   14.29    0.00    0.34    0.06    0.00    30.62    0.01    3.76    0.00
    2  351.60   92.01  155.18    0.15    1.60    0.00   83.02   98.20  144.17  247.38    0.98    0.00    0.03    0.00    5.88     1.02    0.00    0.13    0.00
    3  222.80   46.64   85.99    0.23    0.19    0.00   48.79  127.54  167.21  132.93    0.45    0.00    0.00    0.00    1.01     0.06    0.00    0.01    0.00
    4  466.60   91.52  213.74    0.13    0.73    0.00   84.27  115.83  131.84  305.39    0.84    0.00    0.04    0.00    0.39     0.06    0.00    0.01    0.00
    5  221.20   47.98  103.80    0.16    0.35    0.00   79.59   82.13  141.45  152.05    0.35    0.00    0.11    0.00    0.06     0.04    0.00    0.01    0.00
    6  204.50   37.26   90.24    0.21    0.34    0.00   72.75   84.42  138.26  127.76    0.25    0.00    0.09    0.00    0.00     0.04    0.00    0.00    0.00
    7  729.10  464.47  164.13    0.20    3.36    0.00   88.36   65.18  111.61  628.59    3.64    0.01    0.25    0.01    0.02     2.01    0.02    0.25    0.00
    8  116.20    7.07   68.03    0.43    0.92    0.00   70.61   73.78  134.72   75.84    0.14    0.00    0.07    0.00    0.00     0.03    0.00    0.00    0.00
    9  109.60   12.40   44.34    0.07    0.06    0.00   68.30   55.57  137.68   56.87    0.32    0.00    0.05    0.00    0.00     0.19    0.00    0.02    0.00
   10   90.50   12.08   36.84    0.04    0.05    0.00   59.51   50.11  176.58   49.02    0.34    0.01    0.04    0.00    0.00     0.28    0.00    0.03    0.00
   11  332.20   65.88  161.32    0.04    0.36    0.00   75.72   88.08  134.76  227.29    2.89    0.00    0.28    0.00    0.00     2.51    0.00    0.31    0.00
   12  450.40  154.22  187.17    0.10    1.99    0.00   84.18   97.91  147.41  341.52    5.85    0.01    0.24    0.03    0.00     6.59    0.01    0.81    0.00

 2014 3844.30 1233.14 1561.12    1.91   14.68    0.00   84.18 1036.10 1708.47 2796.82   30.36    0.05    1.55    0.11    7.37    43.45    0.07    5.34    0.00
1
    SWAT Dec 23 2016    VER 2016/Rev 664                                            

    General Input/Output section (file.cio):                                        
    2/7/2020 21:38:35 QSWAT Workflow v1.5.2                                         
                                                                                    
Annual Summary for Watershed in year   11 of simulation

UNIT                                    PERCO    TILE                           WATER     SED     NO3     NO3     NO3     NO3        N       P       P
TIME     PREC    SURQ    LATQ     GWQ    LATE       Q     SW       ET     PET   YIELD   YIELD    SURQ    LATQ    PERC    CROP  ORGANIC SOLUBLE ORGANIC TILENO3
         (mm)    (mm)    (mm)    (mm)    (mm)    (mm)    (mm)    (mm)    (mm)    (mm)   (t/ha)  ------------------(kg nutrient/ha)-------------------- (kg/ha)
    1  682.50  270.75  288.88    0.24    8.30    0.00   89.15  102.33  139.07  559.89   26.46    0.01    0.39    0.16    0.00    37.45    0.02    4.58    0.00
    2  310.40   84.87  142.34    0.82    1.79    0.00   69.74  109.30  148.61  228.17    8.98    0.00    0.08    0.04    5.40     5.39    0.00    0.66    0.00
    3  174.40   12.01   70.10    0.58    0.09    0.00   63.96   97.69  136.34   82.81    0.18    0.00    0.00    0.00    0.95     0.01    0.00    0.00    0.00
    4  364.50  122.94  135.51    0.13    0.18    0.00   71.54   98.53  144.79  258.68    1.39    0.00    0.02    0.00    0.35     0.10    0.00    0.01    0.00
    5  421.40  122.59  191.51    0.18    2.53    0.00   83.74   92.12  126.09  314.37    0.84    0.01    0.16    0.00    0.06     0.10    0.01    0.01    0.00
    6  230.40   57.51  102.04    0.35    1.03    0.00   80.54   72.40  162.53  159.99    0.40    0.01    0.11    0.00    0.00     0.07    0.00    0.01    0.00
    7  101.30    5.90   42.84    0.16    0.07    0.00   63.50   70.66  169.90   48.98    0.05    0.00    0.04    0.00    0.02     0.00    0.00    0.00    0.00
    8  171.70   46.54   72.86    0.08    0.09    0.00   58.99   56.76  171.96  119.55    0.38    0.00    0.12    0.00    0.00     0.22    0.00    0.03    0.00
    9   30.50    0.03    8.92    0.03    0.00    0.00   52.17   28.36  151.13    9.04    0.00    0.00    0.02    0.00    0.00     0.00    0.00    0.00    0.00
   10  211.10   39.46   99.32    0.03    0.14    0.00   59.74   64.23  148.17  138.85    0.68    0.00    0.18    0.00    0.00     0.58    0.00    0.07    0.00
   11  541.90  226.35  215.50    0.05    2.42    0.00   82.84   72.63  148.95  441.92   11.30    0.00    0.35    0.03    0.00     8.96    0.01    1.10    0.00
   12  597.70  309.11  196.13    0.12    4.28    0.00   87.82   79.97  160.16  505.38   23.59    0.00    0.24    0.07    0.00     7.78    0.01    0.96    0.00

 2015 3837.80 1298.07 1565.96    2.75   20.93    0.00   87.82  944.99 1807.69 2867.62   74.26    0.04    1.71    0.30    6.78    60.65    0.06    7.44    0.00
1
    SWAT Dec 23 2016    VER 2016/Rev 664                                            

    General Input/Output section (file.cio):                                        
    2/7/2020 21:38:35 QSWAT Workflow v1.5.2                                         
                                                                                    
Annual Summary for Watershed in year   12 of simulation

UNIT                                    PERCO    TILE                           WATER     SED     NO3     NO3     NO3     NO3        N       P       P
TIME     PREC    SURQ    LATQ     GWQ    LATE       Q     SW       ET     PET   YIELD   YIELD    SURQ    LATQ    PERC    CROP  ORGANIC SOLUBLE ORGANIC TILENO3
         (mm)    (mm)    (mm)    (mm)    (mm)    (mm)    (mm)    (mm)    (mm)    (mm)   (t/ha)  ------------------(kg nutrient/ha)-------------------- (kg/ha)
    1  122.10    9.29   57.91    0.17    0.62    0.00   63.69   83.92  179.12   67.46    0.73    0.00    0.04    0.01    0.00     0.90    0.00    0.11    0.00
    2  182.20   15.30   84.10    0.11    0.08    0.00   57.53   88.57  176.47   99.59    0.17    0.00    0.02    0.00    6.13     0.16    0.00    0.02    0.00
    3  302.60   56.49  127.83    0.09    0.22    0.00   74.32   99.94  136.32  184.47    0.54    0.00    0.01    0.00    0.96     0.25    0.00    0.03    0.00
    4  986.50  484.79  379.25    0.21   11.24    0.00   90.27   82.19   98.99  864.12    2.15    0.01    0.10    0.01    0.28     0.69    0.02    0.08    0.00
    5   55.90   17.65   47.22    1.06    1.50    0.00   61.14   33.37  132.57   66.25    0.09    0.00    0.02    0.00    0.04     0.03    0.00    0.00    0.00
    6    2.60    0.00    0.44    0.61    0.00    0.00   52.30   10.98  133.45    1.19    0.00    0.00    0.01    0.00    0.00     0.00    0.00    0.00    0.00
    7  132.20   29.88   51.45    0.07    0.16    0.00   63.75   39.28  126.37   81.52    0.25    0.01    0.13    0.00    0.02     0.21    0.00    0.03    0.00
    8  160.10   15.43   68.72    0.03    0.10    0.00   61.23   77.66  189.38   84.28    0.21    0.00    0.09    0.00    0.00     0.10    0.00    0.01    0.00
    9  167.20   15.94   75.65    0.05    0.10    0.00   64.46   72.73  114.40   91.71    0.30    0.00    0.11    0.00    0.00     0.27    0.00    0.03    0.00
   10  159.00    7.09   65.97    0.05    0.08    0.00   66.33   79.79  159.76   73.15    0.17    0.00    0.07    0.00    0.00     0.08    0.00    0.01    0.00
   11  334.50  111.96  143.73    0.06    0.25    0.00   66.10   83.24  145.05  255.82    3.66    0.01    0.29    0.00    0.00     5.56    0.01    0.68    0.00
   12  398.80   99.99  189.01    0.09    1.58    0.00   82.30   89.17  134.18  289.12    7.38    0.00    0.29    0.02    0.00     7.50    0.01    0.92    0.00

 2016 3003.70  863.81 1291.28    2.58   15.94    0.00   82.30  840.84 1726.05 2158.69   15.63    0.04    1.17    0.04    7.44    15.75    0.04    1.93    0.00
1
    SWAT Dec 23 2016    VER 2016/Rev 664                                            

    General Input/Output section (file.cio):                                        
    2/7/2020 21:38:35 QSWAT Workflow v1.5.2                                         
                                                                                    
    FINAL VALUES

1
    SWAT Dec 23 2016    VER 2016/Rev 664                                            

    General Input/Output section (file.cio):                                        
    2/7/2020 21:38:35 QSWAT Workflow v1.5.2                                         
                                                                                    
                                            Average Plant Values (kg/ha)

  HRU       1 SUB   1 FRSE  Yld =  2505.8 BIOM =   3579.7
  HRU       2 SUB   1 FRSE  Yld =  2485.5 BIOM =   3550.7
  HRU       3 SUB   1 FRSE  Yld =  4871.4 BIOM =   6959.2
  HRU       4 SUB   2 FRSE  Yld =  5216.3 BIOM =   7451.9
  HRU       5 SUB   2 FRSE  Yld =    46.0 BIOM =     65.8
  HRU       6 SUB   2 FRSE  Yld =    46.0 BIOM =     65.8
  HRU       7 SUB   2 FRSE  Yld =    46.0 BIOM =     65.8
  HRU       8 SUB   3 SWCH  Yld = 23556.8 BIOM =  40826.1
  HRU       9 SUB   3 FRSE  Yld =  2501.0 BIOM =   3572.8
  HRU      10 SUB   3 FRSE  Yld =  2484.3 BIOM =   3549.0
  HRU      11 SUB   3 FRSE  Yld =  5206.6 BIOM =   7437.9
  HRU      12 SUB   3 BARR  Yld =     0.0 BIOM =      0.9
  HRU      13 SUB   3 FRSD  Yld =  4056.7 BIOM =   8387.0
  HRU      14 SUB   4 FRSD  Yld =    42.1 BIOM =     88.2
  HRU      15 SUB   4 FRSD  Yld =    42.1 BIOM =     88.2
  HRU      16 SUB   4 FRSD  Yld =    42.1 BIOM =     88.2
  HRU      17 SUB   4 FRSD  Yld =  4108.5 BIOM =   8486.6
  HRU      18 SUB   4 FRSD  Yld =    42.1 BIOM =     88.2
  HRU      19 SUB   4 FRSD  Yld =    42.1 BIOM =     88.2
  HRU      20 SUB   4 FRSD  Yld =    42.1 BIOM =     88.2
  HRU      21 SUB   4 SWCH  Yld = 21647.7 BIOM =  37781.9
  HRU      22 SUB   4 FRSE  Yld =  2505.9 BIOM =   3579.8
  HRU      23 SUB   4 FRSE  Yld =  2487.5 BIOM =   3553.6
  HRU      24 SUB   4 FRSE  Yld =  5209.6 BIOM =   7442.2
  HRU      25 SUB   4 FRSE  Yld =    46.0 BIOM =     65.7
  HRU      26 SUB   4 FRSE  Yld =    46.0 BIOM =     65.7
  HRU      27 SUB   4 FRSE  Yld =    46.0 BIOM =     65.7
  HRU      28 SUB   4 FRSD  Yld =  4089.6 BIOM =   8449.9
  HRU      29 SUB   4 BARR  Yld =     0.0 BIOM =      0.9
  HRU      30 SUB   4 BARR  Yld =     0.0 BIOM =      0.7
  HRU      31 SUB   5 FRSE  Yld =  5220.9 BIOM =   7458.4
  HRU      32 SUB   5 FRSE  Yld =    46.1 BIOM =     65.8
  HRU      33 SUB   5 FRSE  Yld =    46.1 BIOM =     65.8
  HRU      34 SUB   5 FRSE  Yld =    46.1 BIOM =     65.8
  HRU      35 SUB   5 FRSE  Yld =  4749.1 BIOM =   6784.5
  HRU      36 SUB   5 FRSE  Yld =    46.1 BIOM =     65.8
  HRU      37 SUB   5 FRSE  Yld =    46.1 BIOM =     65.8
  HRU      38 SUB   5 FRSE  Yld =    46.1 BIOM =     65.8
  HRU      39 SUB   5 FRSE  Yld =  3084.8 BIOM =   4406.9
  HRU      40 SUB   5 FRSE  Yld =    46.1 BIOM =     65.8
  HRU      41 SUB   5 FRSE  Yld =    46.1 BIOM =     65.8
  HRU      42 SUB   5 FRSE  Yld =    46.1 BIOM =     65.8

    HRU STATISTICS

                AVE ANNUAL VALUES

   HRU  SUB  SOIL       AREAkm2    CN     AWCmm   USLE_LS  IRRmm  AUTONkh AUTOPkh  MIXEF PRECmm SURQGENmm   GWQmm    ETmm   SEDth  NO3kgh  ORGNkgh BIOMth   YLDth  SURQmm
      1   1   FAGASA     .103E-03   70.00   97.20    0.07    0.00    0.00    0.00    0.20 3445.52 1009.52 1325.06  997.02    0.03    0.02    0.70    3.58    2.51 1007.68
      2   1   FAGASA     .103E-03   70.00   97.20    0.38    0.00    0.00    0.00    0.20 3445.52 1009.10 1327.42  996.56    0.91    0.06   11.58    3.55    2.49 1009.09
      3   1   FAGASA     .119E+00   70.00   97.20    6.29    0.00    0.00    0.00    0.20 3445.52  941.63 1529.09  939.62   20.64    1.74   41.38    6.96    4.87  941.63
      4   2   FAGASA     .939E-01   70.00   97.20   10.22    0.00    0.00    0.00    0.20 3445.52  893.70 1619.09  917.15   29.12    1.66   42.30    7.45    5.22  893.70
      5   2   URBAN LA   .667E-02   77.00    1.50    4.16    0.00    0.00    0.00    0.20 3445.52 2326.09    0.05 1106.47    0.00    0.01    0.00    0.07    0.05 2326.09
      6   2   URBAN LA   .400E-02   77.00    1.50    2.58    0.00    0.00    0.00    0.20 3445.52 2326.18    0.00 1106.53    0.00    0.01    0.00    0.07    0.05 2326.18
      7   2   URBAN LA   .215E-02   77.00    1.50    2.44    0.00    0.00    0.00    0.20 3445.52 2326.17    0.00 1106.52    0.00    0.01    0.00    0.07    0.05 2326.17
      8   3   FAGASA     .616E-03   72.00   97.20    3.37    0.00  151.19    0.00    0.20 3445.52  964.60 1437.35 1003.52    0.17   16.90    2.50   36.26   23.56  964.60
      9   3   FAGASA     .205E-03   70.00   97.20    0.10    0.00    0.00    0.00    0.20 3445.52 1009.46 1325.34  997.02    0.18    0.02    3.12    3.57    2.50 1009.28
     10   3   FAGASA     .718E-03   70.00   97.20    0.28    0.00    0.00    0.00    0.20 3445.52 1009.18 1326.91  996.69    0.88    0.05   11.42    3.55    2.48 1009.17
     11   3   FAGASA     .479E+00   70.00   97.20   13.54    0.00    0.00    0.00    0.20 3445.52  893.66 1620.24  917.25   46.92    1.65   43.42    7.44    5.21  893.66
     12   3   FAGASA     .349E-02   91.00   97.20   16.49    0.00    0.00    0.00    0.20 3445.52 1895.90  766.48  782.60  553.56    1.71   49.85    0.00    0.00 1895.90
     13   3   FAGASA     .141E+00   77.00   97.20   21.12    0.00    0.00    0.00    0.20 3445.52 1130.73 1386.24  926.09   25.31    1.36   48.54    8.69    6.09 1130.73
     14   4   URBAN LA   .103E-03   77.00    1.50    0.10    0.00    0.00    0.00    0.20 3445.52 2324.92    0.00 1107.79    0.00    0.01    0.00    0.09    0.06 2324.51
     15   4   URBAN LA   .205E-03   77.00    1.50    0.26    0.00    0.00    0.00    0.20 3445.52 2324.92    0.00 1107.79    0.00    0.01    0.00    0.09    0.06 2324.86
     16   4   URBAN LA   .108E-01   77.00    1.50    2.20    0.00    0.00    0.00    0.20 3445.52 2324.89    0.01 1107.77    0.00    0.01    0.00    0.09    0.06 2324.89
     17   4   FAGASA     .103E-03   77.00   97.20   10.91    0.00    0.00    0.00    0.20 3445.52 1130.83 1385.47  925.90    5.31    1.42   33.15    8.80    6.16 1130.83
     18   4   URBAN LA   .205E-03   77.00    1.50    0.11    0.00    0.00    0.00    0.20 3445.52 2324.92    0.00 1107.79    0.00    0.01    0.00    0.09    0.06 2324.59
     19   4   URBAN LA   .103E-03   77.00    1.50    0.21    0.00    0.00    0.00    0.20 3445.52 2324.92    0.00 1107.79    0.00    0.01    0.00    0.09    0.06 2324.83
     20   4   URBAN LA   .257E-02   77.00    1.50    2.05    0.00    0.00    0.00    0.20 3445.52 2324.90    0.00 1107.78    0.00    0.01    0.00    0.09    0.06 2324.90
     21   4   FAGASA     .144E-02   72.00   97.20   12.99    0.00  146.54    0.00    0.20 3445.52  757.44 1731.29  951.60    0.64   17.46    7.97   33.43   21.65  757.44
     22   4   FAGASA     .103E-03   70.00   97.20    0.07    0.00    0.00    0.00    0.20 3445.52 1009.52 1325.07  997.00    0.03    0.02    0.70    3.58    2.51 1007.68
     23   4   FAGASA     .103E-03   70.00   97.20    0.35    0.00    0.00    0.00    0.20 3445.52 1009.12 1327.25  996.57    0.82    0.06   10.65    3.55    2.49 1009.11
     24   4   FAGASA     .384E+00   70.00   97.20   11.66    0.00    0.00    0.00    0.20 3445.52  893.69 1619.79  917.17   39.37    1.65   43.07    7.44    5.21  893.69
     25   4   URBAN LA   .308E-03   77.00    1.50    0.12    0.00    0.00    0.00    0.20 3445.52 2326.16    0.00 1106.57    0.00    0.01    0.00    0.07    0.05 2325.89
     26   4   URBAN LA   .308E-03   77.00    1.50    0.33    0.00    0.00    0.00    0.20 3445.52 2326.15    0.00 1106.57    0.00    0.01    0.00    0.07    0.05 2326.15
     27   4   URBAN LA   .260E-01   77.00    1.50    5.01    0.00    0.00    0.00    0.20 3445.52 2326.05    0.06 1106.49    0.00    0.01    0.00    0.07    0.05 2326.05
     28   4   FAGASA     .226E-02   77.00   97.20   11.93    0.00    0.00    0.00    0.20 3445.52 1130.86 1385.52  925.92    8.59    1.40   39.19    8.76    6.13 1130.86
     29   4   FAGASA     .146E-01   91.00   97.20   12.80    0.00    0.00    0.00    0.20 3445.52 1895.87  766.57  782.54  509.84    1.71   49.85    0.00    0.00 1895.87
     30   4   URBAN LA   .123E-02   94.00    1.50    3.13    0.00    0.00    0.00    0.20 3445.52 2598.92    0.01  842.39    0.00    0.08    0.00    0.00    0.00 2598.92
     31   5   FAGASA     .114E+00   70.00   97.20    9.47    0.00    0.00    0.00    0.20 3445.52  894.67 1616.95  917.30   27.60    1.65   42.13    7.46    5.22  894.67
     32   5   URBAN LA   .103E-03   77.00    1.50    0.16    0.00    0.00    0.00    0.20 3445.52 2326.23    0.00 1106.49    0.00    0.01    0.00    0.07    0.05 2326.09
     33   5   URBAN LA   .770E-02   77.00    1.50    0.29    0.00    0.00    0.00    0.20 3445.52 2326.23    0.00 1106.49    0.00    0.01    0.00    0.07    0.05 2326.18
     34   5   URBAN LA   .214E-01   77.00    1.50    3.56    0.00    0.00    0.00    0.20 3445.52 2326.15    0.05 1106.43    0.00    0.01    0.00    0.07    0.05 2326.15
     35   5   FAGASA     .123E-02   77.00   97.20    3.54    0.00    0.00    0.00    0.20 3445.52 1288.82 1162.28  956.02    9.47    1.63   37.54    6.78    4.75 1288.82
     36   5   URBAN LA   .154E-02   77.00    1.50    0.14    0.00    0.00    0.00    0.20 3445.52 2326.23    0.00 1106.49    0.00    0.01    0.00    0.07    0.05 2326.05
     37   5   URBAN LA   .831E-02   77.00    1.50    0.27    0.00    0.00    0.00    0.20 3445.52 2326.23    0.00 1106.49    0.00    0.01    0.00    0.07    0.05 2326.18
     38   5   URBAN LA   .103E-01   77.00    1.50    2.34    0.00    0.00    0.00    0.20 3445.52 2326.23    0.00 1106.49    0.00    0.01    0.00    0.07    0.05 2326.23
     39   5   FAGASA     .205E-03   77.00   97.20    3.07    0.00    0.00    0.00    0.20 3445.52 1324.29 1072.20  989.38   10.24    1.05   39.03    4.41    3.08 1324.29
     40   5   URBAN LA   .103E-03   77.00    1.50    0.15    0.00    0.00    0.00    0.20 3445.52 2326.23    0.00 1106.49    0.00    0.01    0.00    0.07    0.05 2326.07
     41   5   URBAN LA   .277E-02   77.00    1.50    0.28    0.00    0.00    0.00    0.20 3445.52 2326.23    0.00 1106.49    0.00    0.01    0.00    0.07    0.05 2326.22
     42   5   URBAN LA   .492E-02   77.00    1.50    2.41    0.00    0.00    0.00    0.20 3445.52 2326.23    0.00 1106.49    0.00    0.01    0.00    0.07    0.05 2326.23



                AVE MONTHLY BASIN VALUES
                   SNOW                      WATER               SED
  MON     RAIN     FALL   SURF Q    LAT Q    YIELD       ET    YIELD      PET
          (MM)     (MM)     (MM)     (MM)     (MM)     (MM)   (T/HA)     (MM)
    1   482.70     0.00   168.38   216.57   385.26    92.94    14.28   144.59
    2   253.79     0.00    62.24   118.61   181.47    92.86     4.59   147.84
    3   198.40     0.00    29.41    80.17   110.04   101.62     0.32   138.82
    4   514.13     0.00   184.36   207.14   391.63    88.67     1.27   122.00
    5   208.30     0.00    48.84   103.44   152.82    71.38     0.35   133.43
    6   184.15     0.00    50.27    77.53   128.19    57.44     0.44   130.69
    7   302.85     0.00   131.41    99.38   230.93    62.39     1.07   127.72
    8   228.95     0.00    61.38   102.90   164.58    70.16     0.77   152.17
    9   118.50     0.00    12.93    49.89    62.95    59.47     0.33   138.40
   10   173.78     0.00    29.77    72.11   101.97    67.27     0.90   162.02
   11   347.38     0.00   109.07   148.94   258.11    79.93     4.99   144.68
   12   439.18     0.00   156.27   178.97   335.37    90.90    10.94   146.90

     AVE ANNUAL BASIN STRESS DAYS
               WATER STRESS DAYS =     3.23
               TEMPERATURE STRESS DAYS =     0.12
               NITROGEN STRESS DAYS =    13.88
               PHOSPHORUS STRESS DAYS =     0.08
               AERATION STRESS DAYS =     0.01
1
    SWAT Dec 23 2016    VER 2016/Rev 664                                            

    General Input/Output section (file.cio):                                        
    2/7/2020 21:38:35 QSWAT Workflow v1.5.2                                         
                                                                                    
         AVE ANNUAL BASIN VALUES

              PRECIP =   3445.5 MM
              SNOW FALL =    0.00 MM
              SNOW MELT =     0.00 MM
              SUBLIMATION =     0.00 MM
              SURFACE RUNOFF Q =  1042.73 MM
              LATERAL SOIL Q = 1452.59 MM
              TILE Q =     0.00 MM
              GROUNDWATER (SHAL AQ) Q =     2.46 MM
              GROUNDWATER (DEEP AQ) Q =     0.83 MM
              REVAP (SHAL AQ => SOIL/PLANTS) =   31.63 MM
              DEEP AQ RECHARGE =     0.81 MM
              TOTAL AQ RECHARGE =   16.16 MM
              TOTAL WATER YLD =  2498.62 MM
              PERCOLATION OUT OF SOIL =   16.10 MM
              ET =    932.6 MM
              PET =   1685.4MM
              TRANSMISSION LOSSES =     0.00 MM
              SEPTIC INFLOW =       0.00 MM
              TOTAL SEDIMENT LOADING =     40.12 T/HA
              TILE FROM IMPOUNDED WATER =     0.000 (MM)
              EVAPORATION FROM IMPOUNDED WATER =     0.000 (MM)
              SEEPAGE INTO SOIL FROM IMPOUNDED WATER =    0.000 (MM)
              OVERFLOW FROM IMPOUNDED WATER =    0.000 (MM)
1
    SWAT Dec 23 2016    VER 2016/Rev 664                                            

    General Input/Output section (file.cio):                                        
    2/7/2020 21:38:35 QSWAT Workflow v1.5.2                                         
                                                                                    
              AVE ANNUAL BASIN VALUES


              NUTRIENTS
                   ORGANIC N =    40.159 (KG/HA)
                   ORGANIC P =     4.927 (KG/HA)
                   NO3 YIELD (SQ) =     0.042 (KG/HA)
                   NO3 YIELD (LAT) =    1.484 (KG/HA)
                   NO3 YIELD (TILE) =    0.000 (KG/HA)
                   SOLP YIELD (TILE) =    0.000(KG/HA)
                   SOLP YIELD (SURF INLET RISER) =    0.000 (KG/HA)
                   SOL P YIELD =    0.055 (KG/HA)
                   NO3 LEACHED =     0.171 (KG/HA)
                   P LEACHED =     0.006 (KG/HA)
                   N UPTAKE =     6.936 (KG/HA)
                   P UPTAKE =    1.653 (KG/HA)
                   NO3 YIELD (GWQ) =     0.000 (KG/HA)
                   ACTIVE TO SOLUTION P FLOW =         0.259 (KG/HA)
                   ACTIVE TO STABLE P FLOW =         0.605 (KG/HA)
                   N FERTILIZER APPLIED =     0.207 (KG/HA)
                   P FERTILIZER APPLIED =     0.000 (KG/HA)
                   N FIXATION =     0.000 (KG/HA)
                   DENITRIFICATION =     0.011 (KG/HA)
                   HUMUS MIN ON ACTIVE ORG N =    10.677 (KG/HA)
                   ACTIVE TO STABLE ORG N =    -9.191 (KG/HA)
                   HUMUS MIN ON ACTIVE ORG P =    1.822 (KG/HA)
                   MIN FROM FRESH ORG N =    1.190 (KG/HA)
                   MIN FROM FRESH ORG P =    0.302 (KG/HA)
                   NO3 IN RAINFALL =     0.000 (KG/HA)
                   INITIAL NO3 IN SOIL =      35.168 (KG/HA)
                   FINAL NO3 IN SOIL =         6.255 (KG/HA)
                   INITIAL ORG N IN SOIL =   10023.003 (KG/HA)
                   FINAL ORG N IN SOIL =      9132.841 (KG/HA)
                   INITIAL MIN P IN SOIL =    1612.242 (KG/HA)
                   FINAL MIN P IN SOIL =      1542.284 (KG/HA)
                   INITIAL ORG P IN SOIL =    1227.818 (KG/HA)
                   FINAL ORG P IN SOIL =    1112.346 (KG/HA)
                   NO3 IN FERT =     0.207 (KG/HA)
                   AMMONIA IN FERT =     0.000 (KG/HA)
                   ORG N IN FERT =     0.000 (KG/HA)
                   MINERAL P IN FERT =     0.000 (KG/HA)
                   ORG P IN FERT =     0.000 (KG/HA)
                   N REMOVED IN YIELD =     5.535 (KG/HA)
                   P REMOVED IN YIELD =     1.320 (KG/HA)
                   AMMONIA VOLATILIZATION =     0.000 (KG/HA)
                   AMMONIA NITRIFICATION =      0.000 (KG/HA)
                   NO3 EVAP-LAYER 2 TO 1 =    3.252

                   DIE-GRO P Q =           0.0 (No/M2)
                   DIE-GRO LP Q =           0.0 (No/M2)
                   DIE-GRO P SED =          0.0 (No/M2)
                   DIE-GRO LP SED =          0.0 (No/M2)
                   BACT P RUNOFF =          0.0 (No/M2)
                   BACT LP RUNOFF =          0.0 (No/M2)
                   BACT P SEDIMENT =          0.0 (No/M2)
                   BACT LP SEDIMENT =          0.0 (No/M2)
                   BACT P INCORP =          0.0 (No/M2)
                   BACT LP INCORP =          0.0 (No/M2)

                   NITRATE SEPTIC =         0.00 (kg/ha)
                   AMMONIA SEPTIC =         0.00 (kg/ha)
                   ORG N SEPTIC =         0.00 (kg/ha)
                   FRESH ORGN SEPTIC =         0.00 (kg/ha)
                   ORG P SEPTIC =         0.00 (kg/ha)
                   FRESH ORGP SEPTIC =         0.00 (kg/ha)
                   SOL P SEPTIC =         0.00 (kg/ha)
                   BOD SEPTIC =         0.00 (kg/ha)
