1
    SWAT Dec 23 2016    VER 2016/Rev 664                                                                 0/ 0/   0      0: 0: 0

    General Input/Output section (file.cio):                                        
    2/7/2020 21:38:35 QSWAT Workflow v1.5.2                                         
                                                                                    


       SUB      GIS  MON   AREAkm2  PRECIPmm SNOMELTmm     PETmm      ETmm      SWmm    PERCmm    SURQmm    GW_Qmm    WYLDmm  SYLDt/ha ORGNkg/ha ORGPkg/haNSURQkg/ha SOLPkg/ha SEDPkg/ha LAT Q(mm)LATNO3kg/hGWNO3kg/haCHOLAmic/LCBODU mg/L DOXQ mg/L TNO3kg/ha   QTILEmm TVAPkg/ha
BIGSUB   1        0    1.11943E+00   576.600     0.000   117.352    88.045    96.086    17.620   163.731     3.903   456.678     8.899    23.419     2.861     0.004     0.010     2.288   288.785     0.439     0.000 .00000E+00 0.000E+00 0.000E+00 0.000E+00 0.000E+00 0.000E+00
BIGSUB   2        0    1.10671E+00   576.600     0.000   117.315    89.391    88.352     6.811   195.649     0.000   459.963    12.069    23.892     2.918     0.005     0.016     2.345   264.247     0.365     0.000 .00000E+00 0.000E+00 0.000E+00 0.000E+00 0.000E+00 0.000E+00
BIGSUB   3        0    1.62454E+00   576.600     0.000   117.404    86.276    95.919     6.390   176.911     0.262   464.527    17.474    24.349     2.978     0.012     0.016     2.406   287.293     0.406     0.000 .00000E+00 0.000E+00 0.000E+00 0.000E+00 0.000E+00 0.000E+00
BIGSUB   4        0    1.44478E+00   576.600     0.000   117.327    88.678    88.895     6.466   194.741     0.077   461.318    18.472    26.925     3.288     0.006     0.015     2.657   266.436     0.382     0.000 .00000E+00 0.000E+00 0.000E+00 0.000E+00 0.000E+00 0.000E+00
BIGSUB   5        0    1.17237E+00   576.600     0.000   117.298    92.993    74.749     6.544   255.498     0.135   455.377     8.612    17.823     2.177     0.004     0.030     1.748   199.671     0.276     0.000 .00000E+00 0.000E+00 0.000E+00 0.000E+00 0.000E+00 0.000E+00
BIGSUB   1        0    2.11943E+00   144.700     0.000   106.796    68.495    47.592     5.642    42.267     8.744   137.716     4.421     6.475     0.791     0.000     0.002     0.633    86.391     0.119     0.001 .00000E+00 0.000E+00 0.000E+00 0.000E+00 0.000E+00 0.000E+00
BIGSUB   2        0    2.10671E+00   144.700     0.000   106.713    66.536    41.897     2.561    51.917     0.000   130.920     6.092     6.205     0.758     0.000     0.004     0.611    78.906     0.106     0.000 .00000E+00 0.000E+00 0.000E+00 0.000E+00 0.000E+00 0.000E+00
BIGSUB   3        0    2.62454E+00   144.700     0.000   106.915    65.715    50.063     2.420    45.746     0.289   132.303     8.766     5.628     0.689     0.001     0.003     0.559    86.177     0.117     0.000 .00000E+00 0.000E+00 0.000E+00 0.000E+00 0.000E+00 0.000E+00
BIGSUB   4        0    2.44478E+00   144.700     0.000   106.739    65.918    43.110     2.416    51.356     0.084   131.174     8.994     6.227     0.760     0.000     0.003     0.616    79.641     0.113     0.000 .00000E+00 0.000E+00 0.000E+00 0.000E+00 0.000E+00 0.000E+00
BIGSUB   5        0    2.17237E+00   144.700     0.000   106.674    63.136    31.849     2.446    69.412     0.180   129.309     4.345     4.685     0.572     0.000     0.007     0.460    59.618     0.080     0.000 .00000E+00 0.000E+00 0.000E+00 0.000E+00 0.000E+00 0.000E+00
BIGSUB   1        0    3.11943E+00    93.800     0.000   115.374    84.612    19.998     0.000     0.000     5.077    42.205     0.000     0.000     0.000     0.000     0.000     0.000    36.767     0.000     0.000 .00000E+00 0.000E+00 0.000E+00 0.000E+00 0.000E+00 0.000E+00
BIGSUB   2        0    3.10671E+00    93.800     0.000   115.272    81.012    15.703     0.030     3.428     0.000    39.058     0.000     0.000     0.000     0.000     0.001     0.000    35.509     0.000     0.000 .00000E+00 0.000E+00 0.000E+00 0.000E+00 0.000E+00 0.000E+00
BIGSUB   3        0    3.62454E+00    93.800     0.000   115.519    82.778    20.743     0.000     0.172     0.220    40.658     0.045     0.002     0.000     0.000     0.000     0.000    40.154     0.003     0.000 .00000E+00 0.000E+00 0.000E+00 0.000E+00 0.000E+00 0.000E+00
BIGSUB   4        0    3.44478E+00    93.800     0.000   115.304    80.061    17.204     0.023     3.475     0.064    39.787     0.244     0.013     0.002     0.000     0.000     0.001    36.133     0.011     0.000 .00000E+00 0.000E+00 0.000E+00 0.000E+00 0.000E+00 0.000E+00
BIGSUB   5        0    3.17237E+00    93.800     0.000   115.224    77.166    12.036     0.082     9.463     0.115    36.591     0.000     0.000     0.000     0.000     0.002     0.000    26.892     0.000     0.000 .00000E+00 0.000E+00 0.000E+00 0.000E+00 0.000E+00 0.000E+00
BIGSUB   1        0    4.11943E+00   238.900     0.000   112.382    59.310    51.263     0.096    31.102     0.087   133.889     0.014     0.028     0.003     0.001     0.001     0.003   102.403     0.029     0.000 .00000E+00 0.000E+00 0.000E+00 0.000E+00 0.000E+00 0.000E+00
BIGSUB   2        0    4.10671E+00   238.900     0.000   112.361    56.929    46.762     0.214    38.011     0.000   136.681     0.015     0.022     0.003     0.001     0.003     0.002    98.568     0.024     0.000 .00000E+00 0.000E+00 0.000E+00 0.000E+00 0.000E+00 0.000E+00
BIGSUB   3        0    4.62454E+00   238.900     0.000   112.410    58.996    44.764     0.082    33.369     0.073   141.340     0.350     0.065     0.008     0.001     0.001     0.007   107.803     0.021     0.000 .00000E+00 0.000E+00 0.000E+00 0.000E+00 0.000E+00 0.000E+00
BIGSUB   4        0    4.44478E+00   238.900     0.000   112.368    56.537    46.485     0.189    40.078     0.022   138.997     1.743     0.087     0.011     0.001     0.002     0.009    98.799     0.024     0.000 .00000E+00 0.000E+00 0.000E+00 0.000E+00 0.000E+00 0.000E+00
BIGSUB   5        0    4.17237E+00   238.900     0.000   112.352    58.825    49.402     0.590    55.161     0.014   129.804     0.011     0.017     0.002     0.001     0.006     0.002    74.526     0.018     0.000 .00000E+00 0.000E+00 0.000E+00 0.000E+00 0.000E+00 0.000E+00
BIGSUB   1        0    5.11943E+00   134.700     0.000   133.614    74.510    49.928     0.068     2.117     0.076    75.782     0.001     0.002     0.000     0.000     0.000     0.000    73.347     0.053     0.000 .00000E+00 0.000E+00 0.000E+00 0.000E+00 0.000E+00 0.000E+00
BIGSUB   2        0    5.10671E+00   134.700     0.000   133.652    77.428    37.187     0.314     9.644     0.000    79.552     0.001     0.001     0.000     0.000     0.001     0.000    69.821     0.047     0.000 .00000E+00 0.000E+00 0.000E+00 0.000E+00 0.000E+00 0.000E+00
BIGSUB   3        0    5.62454E+00   134.700     0.000   133.561    77.520    37.365     0.058     1.785     0.065    78.542     0.051     0.003     0.000     0.000     0.000     0.000    76.613     0.041     0.000 .00000E+00 0.000E+00 0.000E+00 0.000E+00 0.000E+00 0.000E+00
BIGSUB   4        0    5.44478E+00   134.700     0.000   133.640    76.443    38.012     0.254     8.805     0.020    79.520     0.271     0.006     0.001     0.001     0.001     0.001    70.613     0.047     0.000 .00000E+00 0.000E+00 0.000E+00 0.000E+00 0.000E+00 0.000E+00
BIGSUB   5        0    5.17237E+00   134.700     0.000   133.669    85.755    30.225     0.871    24.919     0.004    77.834     0.001     0.001     0.000     0.001     0.004     0.000    52.821     0.035     0.000 .00000E+00 0.000E+00 0.000E+00 0.000E+00 0.000E+00 0.000E+00
BIGSUB   1        0    6.11943E+00   299.100     0.000    88.546    61.016    68.087     0.155   104.321     0.097   220.170     0.147     0.282     0.035     0.003     0.004     0.026   115.572     0.173     0.000 .00000E+00 0.000E+00 0.000E+00 0.000E+00 0.000E+00 0.000E+00
BIGSUB   2        0    6.10671E+00   299.100     0.000    88.659    62.875    48.871     0.064   109.048     0.000   224.609     0.153     0.221     0.027     0.003     0.007     0.021   115.494     0.170     0.000 .00000E+00 0.000E+00 0.000E+00 0.000E+00 0.000E+00 0.000E+00
BIGSUB   3        0    6.62454E+00   299.100     0.000    88.387    60.251    52.420     0.133    96.440     0.083   223.872     0.679     0.292     0.037     0.003     0.004     0.029   127.290     0.163     0.000 .00000E+00 0.000E+00 0.000E+00 0.000E+00 0.000E+00 0.000E+00
BIGSUB   4        0    6.44478E+00   299.100     0.000    88.623    62.012    49.864     0.090   109.044     0.026   225.295     2.580     0.257     0.032     0.004     0.006     0.025   116.161     0.170     0.000 .00000E+00 0.000E+00 0.000E+00 0.000E+00 0.000E+00 0.000E+00
BIGSUB   5        0    6.17237E+00   299.100     0.000    88.711    68.239    39.059     0.208   134.733     0.008   221.947     0.110     0.166     0.021     0.003     0.014     0.016    87.131     0.128     0.000 .00000E+00 0.000E+00 0.000E+00 0.000E+00 0.000E+00 0.000E+00
BIGSUB   1        0    7.11943E+00   248.800     0.000   103.045    74.949    84.144     0.239    20.938     0.127   158.040     0.047     0.106     0.013     0.002     0.001     0.010   136.835     0.179     0.000 .00000E+00 0.000E+00 0.000E+00 0.000E+00 0.000E+00 0.000E+00
BIGSUB   2        0    7.10671E+00   248.800     0.000   103.230    75.697    57.817     0.091    28.701     0.000   164.338     0.029     0.049     0.006     0.001     0.003     0.005   135.584     0.179     0.000 .00000E+00 0.000E+00 0.000E+00 0.000E+00 0.000E+00 0.000E+00
BIGSUB   3        0    7.62454E+00   248.800     0.000   102.782    71.930    62.843     0.216    14.584     0.109   166.638     0.189     0.075     0.009     0.002     0.001     0.008   151.898     0.202     0.000 .00000E+00 0.000E+00 0.000E+00 0.000E+00 0.000E+00 0.000E+00
BIGSUB   4        0    7.44478E+00   248.800     0.000   103.172    74.936    58.866     0.133    28.068     0.034   165.040     0.800     0.051     0.006     0.002     0.003     0.005   136.887     0.182     0.000 .00000E+00 0.000E+00 0.000E+00 0.000E+00 0.000E+00 0.000E+00
BIGSUB   5        0    7.17237E+00   248.800     0.000   103.316    81.297    45.377     0.341    58.650     0.022   161.098     0.021     0.038     0.005     0.001     0.009     0.004   102.363     0.135     0.000 .00000E+00 0.000E+00 0.000E+00 0.000E+00 0.000E+00 0.000E+00
BIGSUB   1        0    8.11943E+00   467.800     0.000   112.650    72.735    88.285     9.540   179.510     0.202   381.505     1.023     2.282     0.280     0.006     0.007     0.216   201.672     0.237     0.000 .00000E+00 0.000E+00 0.000E+00 0.000E+00 0.000E+00 0.000E+00
BIGSUB   2        0    8.10671E+00   467.800     0.000   112.820    73.708    74.241     0.113   178.721     0.000   377.393     0.985     1.651     0.203     0.005     0.011     0.157   198.631     0.178     0.000 .00000E+00 0.000E+00 0.000E+00 0.000E+00 0.000E+00 0.000E+00
BIGSUB   3        0    8.62454E+00   467.800     0.000   112.410    69.843    81.036     0.330   160.467     0.177   379.420     2.052     2.095     0.262     0.008     0.007     0.209   218.738     0.203     0.000 .00000E+00 0.000E+00 0.000E+00 0.000E+00 0.000E+00 0.000E+00
BIGSUB   4        0    8.44478E+00   467.800     0.000   112.766    72.982    75.175     0.185   178.421     0.054   378.209     4.140     1.696     0.209     0.006     0.009     0.162   199.695     0.185     0.000 .00000E+00 0.000E+00 0.000E+00 0.000E+00 0.000E+00 0.000E+00
BIGSUB   5        0    8.17237E+00   467.800     0.000   112.898    79.340    57.539     0.529   226.044     0.053   375.722     0.708     1.247     0.153     0.004     0.023     0.118   149.573     0.135     0.000 .00000E+00 0.000E+00 0.000E+00 0.000E+00 0.000E+00 0.000E+00
BIGSUB   1        0    9.11943E+00   166.700     0.000   150.420    81.877    79.436     1.267    20.002     0.238    93.053     0.274     0.503     0.062     0.002     0.001     0.048    72.659     0.055     0.000 .00000E+00 0.000E+00 0.000E+00 0.000E+00 0.000E+00 0.000E+00
BIGSUB   2        0    9.10671E+00   166.700     0.000   150.600    82.499    65.949     0.056    23.925     0.000    92.724     0.293     0.399     0.049     0.002     0.002     0.038    68.769     0.040     0.000 .00000E+00 0.000E+00 0.000E+00 0.000E+00 0.000E+00 0.000E+00
BIGSUB   3        0    9.62454E+00   166.700     0.000   150.163    78.726    72.396     0.091    20.268     0.213    97.058     0.618     0.504     0.063     0.003     0.001     0.051    76.547     0.046     0.000 .00000E+00 0.000E+00 0.000E+00 0.000E+00 0.000E+00 0.000E+00
BIGSUB   4        0    9.44478E+00   166.700     0.000   150.543    81.628    66.589     0.071    24.302     0.064    93.945     1.238     0.396     0.049     0.002     0.001     0.038    69.549     0.040     0.000 .00000E+00 0.000E+00 0.000E+00 0.000E+00 0.000E+00 0.000E+00
BIGSUB   5        0    9.17237E+00   166.700     0.000   150.684    87.813    50.571     0.190    33.952     0.104    86.005     0.212     0.305     0.037     0.002     0.004     0.029    51.906     0.030     0.000 .00000E+00 0.000E+00 0.000E+00 0.000E+00 0.000E+00 0.000E+00
BIGSUB   1        0   10.11943E+00   234.500     0.000   163.600    75.602    87.999     0.138    56.461     0.180   144.559     1.311     2.218     0.272     0.006     0.002     0.211    87.762     0.107     0.000 .00000E+00 0.000E+00 0.000E+00 0.000E+00 0.000E+00 0.000E+00
BIGSUB   2        0   10.10671E+00   234.500     0.000   163.761    76.322    72.701     0.231    60.740     0.000   145.473     1.440     1.734     0.213     0.006     0.004     0.166    84.708     0.087     0.000 .00000E+00 0.000E+00 0.000E+00 0.000E+00 0.000E+00 0.000E+00
BIGSUB   3        0   10.62454E+00   234.500     0.000   163.371    72.529    78.665     0.118    56.209     0.155   149.458     2.550     2.274     0.284     0.008     0.002     0.233    93.070     0.097     0.000 .00000E+00 0.000E+00 0.000E+00 0.000E+00 0.000E+00 0.000E+00
BIGSUB   4        0   10.44478E+00   234.500     0.000   163.710    75.212    73.109     0.214    61.260     0.048   146.827     3.250     1.623     0.199     0.007     0.003     0.156    85.494     0.087     0.000 .00000E+00 0.000E+00 0.000E+00 0.000E+00 0.000E+00 0.000E+00
BIGSUB   5        0   10.17237E+00   234.500     0.000   163.835    81.784    58.120     0.657    75.975     0.046   139.929     1.035     1.326     0.163     0.005     0.008     0.127    63.871     0.066     0.000 .00000E+00 0.000E+00 0.000E+00 0.000E+00 0.000E+00 0.000E+00
BIGSUB   1        0   11.11943E+00   180.900     0.000   149.981    76.987    87.386     0.100    30.018     0.132   105.432     1.246     1.816     0.223     0.002     0.001     0.173    75.156     0.095     0.000 .00000E+00 0.000E+00 0.000E+00 0.000E+00 0.000E+00 0.000E+00
BIGSUB   2        0   11.10671E+00   180.900     0.000   150.100    77.167    70.999     0.068    32.352     0.000   106.070     1.338     1.323     0.162     0.003     0.002     0.127    73.698     0.079     0.000 .00000E+00 0.000E+00 0.000E+00 0.000E+00 0.000E+00 0.000E+00
BIGSUB   3        0   11.62454E+00   180.900     0.000   149.812    73.142    76.974     0.086    28.823     0.113   110.264     2.369     1.963     0.246     0.003     0.001     0.205    81.309     0.087     0.000 .00000E+00 0.000E+00 0.000E+00 0.000E+00 0.000E+00 0.000E+00
BIGSUB   4        0   11.44478E+00   180.900     0.000   150.063    75.877    71.434     0.079    32.653     0.035   107.364     2.566     1.227     0.151     0.003     0.002     0.119    74.655     0.080     0.000 .00000E+00 0.000E+00 0.000E+00 0.000E+00 0.000E+00 0.000E+00
BIGSUB   5        0   11.17237E+00   180.900     0.000   150.155    83.202    56.806     0.203    43.777     0.018    99.452     0.962     1.023     0.125     0.002     0.005     0.098    55.626     0.059     0.000 .00000E+00 0.000E+00 0.000E+00 0.000E+00 0.000E+00 0.000E+00
BIGSUB   1        0   12.11943E+00   309.800     0.000   145.851    97.258    90.983     3.816    56.214     0.150   203.774     4.179     5.139     0.629     0.002     0.002     0.490   147.298     0.235     0.000 .00000E+00 0.000E+00 0.000E+00 0.000E+00 0.000E+00 0.000E+00
BIGSUB   2        0   12.10671E+00   309.800     0.000   145.897    98.087    77.386     0.076    63.574     0.000   203.809     4.658     3.774     0.463     0.002     0.004     0.363   140.218     0.188     0.000 .00000E+00 0.000E+00 0.000E+00 0.000E+00 0.000E+00 0.000E+00
BIGSUB   3        0   12.62454E+00   309.800     0.000   145.786    93.672    82.708     0.221    53.541     0.128   208.796     8.197     5.758     0.722     0.003     0.002     0.604   155.110     0.216     0.000 .00000E+00 0.000E+00 0.000E+00 0.000E+00 0.000E+00 0.000E+00
BIGSUB   4        0   12.44478E+00   309.800     0.000   145.883    96.804    77.629     0.123    63.401     0.040   205.284     7.873     3.443     0.423     0.003     0.003     0.334   141.826     0.192     0.000 .00000E+00 0.000E+00 0.000E+00 0.000E+00 0.000E+00 0.000E+00
BIGSUB   5        0   12.17237E+00   309.800     0.000   145.919   104.939    64.127     0.322    90.264     0.024   196.162     3.344     2.924     0.358     0.002     0.010     0.281   105.845     0.142     0.000 .00000E+00 0.000E+00 0.000E+00 0.000E+00 0.000E+00 0.000E+00
BIGSUB   1        0 2013.11943E+00  3096.300     0.000  1499.612   915.397    90.983    38.682   706.682    19.010  2152.805    21.562    42.271     5.170     0.029     0.030     4.097  1424.648     1.719     0.002 .00000E+00 0.000E+00 0.000E+00 0.000E+00 0.000E+00 0.000E+00
BIGSUB   2        0 2013.10671E+00  3096.300     0.000  1500.381   917.652    77.386    10.627   795.712     0.000  2160.590    27.075    39.272     4.802     0.028     0.058     3.833  1364.153     1.463     0.000 .00000E+00 0.000E+00 0.000E+00 0.000E+00 0.000E+00 0.000E+00
BIGSUB   3        0 2013.62454E+00  3096.300     0.000  1498.520   891.377    82.708    10.145   688.315     1.888  2192.877    43.340    43.008     5.299     0.044     0.038     4.312  1502.002     1.602     0.000 .00000E+00 0.000E+00 0.000E+00 0.000E+00 0.000E+00 0.000E+00
BIGSUB   4        0 2013.44478E+00  3096.301     0.000  1500.138   907.088    77.629    10.241   795.604     0.570  2172.759    52.171    41.952     5.130     0.037     0.049     4.122  1375.890     1.513     0.000 .00000E+00 0.000E+00 0.000E+00 0.000E+00 0.000E+00 0.000E+00
BIGSUB   5        0 2013.17237E+00  3096.300     0.000  1500.735   964.487    64.127    12.983  1077.848     0.723  2109.231    19.360    29.554     3.614     0.025     0.121     2.881  1029.842     1.104     0.000 .00000E+00 0.000E+00 0.000E+00 0.000E+00 0.000E+00 0.000E+00
BIGSUB   1        0    1.11943E+00   549.600     0.000   142.784    96.775    88.296    15.577   177.877     0.250   446.485     7.819    26.212     3.202     0.004     0.011     2.556   268.188     0.422     0.000 .00000E+00 0.000E+00 0.000E+00 0.000E+00 0.000E+00 0.000E+00
BIGSUB   2        0    1.10671E+00   549.600     0.000   142.700    98.697    77.603     4.087   205.946     0.000   452.433     9.982    25.267     3.086     0.004     0.017     2.477   246.458     0.323     0.000 .00000E+00 0.000E+00 0.000E+00 0.000E+00 0.000E+00 0.000E+00
BIGSUB   3        0    1.62454E+00   549.600     0.000   142.902    94.992    87.105     3.565   186.130     0.225   453.150    17.620    37.196     4.582     0.005     0.011     3.754   266.767     0.348     0.000 .00000E+00 0.000E+00 0.000E+00 0.000E+00 0.000E+00 0.000E+00
BIGSUB   4        0    1.44478E+00   549.600     0.000   142.727    97.571    78.560     3.896   204.745     0.067   453.124    15.170    28.385     3.467     0.005     0.015     2.801   248.283     0.337     0.000 .00000E+00 0.000E+00 0.000E+00 0.000E+00 0.000E+00 0.000E+00
BIGSUB   5        0    1.17237E+00   549.600     0.000   142.662   104.959    59.652     3.908   263.673     0.100   449.981     7.133    18.910     2.310     0.003     0.030     1.852   186.168     0.246     0.000 .00000E+00 0.000E+00 0.000E+00 0.000E+00 0.000E+00 0.000E+00
BIGSUB   1        0    2.11943E+00   351.600     0.000   144.154    99.459    89.687     5.902    76.461     0.242   242.653     0.280     0.792     0.097     0.000     0.001     0.077   165.746     0.007     0.000 .00000E+00 0.000E+00 0.000E+00 0.000E+00 0.000E+00 0.000E+00
BIGSUB   2        0    2.10671E+00   351.600     0.000   144.066    99.167    80.061     1.252    93.916     0.000   246.478     0.361     0.744     0.091     0.000     0.005     0.073   152.521     0.005     0.000 .00000E+00 0.000E+00 0.000E+00 0.000E+00 0.000E+00 0.000E+00
BIGSUB   3        0    2.62454E+00   351.600     0.000   144.279    97.189    89.236     1.184    83.094     0.221   248.965     0.972     1.358     0.168     0.003     0.001     0.139   165.612     0.020     0.000 .00000E+00 0.000E+00 0.000E+00 0.000E+00 0.000E+00 0.000E+00
BIGSUB   4        0    2.44478E+00   351.600     0.000   144.094    98.201    80.930     1.229    93.735     0.065   247.619     1.614     0.860     0.105     0.010     0.004     0.086   153.778     0.055     0.000 .00000E+00 0.000E+00 0.000E+00 0.000E+00 0.000E+00 0.000E+00
BIGSUB   5        0    2.17237E+00   351.600     0.000   144.025   100.365    63.136     1.308   129.372     0.117   244.844     0.258     0.564     0.069     0.000     0.013     0.055   115.306     0.004     0.000 .00000E+00 0.000E+00 0.000E+00 0.000E+00 0.000E+00 0.000E+00
BIGSUB   1        0    3.11943E+00   222.800     0.000   167.199   130.238    56.806     0.598    39.905     1.076   129.809     0.013     0.031     0.004     0.000     0.000     0.003    88.581     0.002     0.000 .00000E+00 0.000E+00 0.000E+00 0.000E+00 0.000E+00 0.000E+00
BIGSUB   2        0    3.10671E+00   222.800     0.000   167.151   127.841    46.765     0.141    46.970     0.000   131.457     0.017     0.033     0.004     0.000     0.002     0.003    84.435     0.002     0.000 .00000E+00 0.000E+00 0.000E+00 0.000E+00 0.000E+00 0.000E+00
BIGSUB   3        0    3.62454E+00   222.800     0.000   167.267   127.938    52.057     0.099    43.187     0.249   135.769     0.248     0.080     0.010     0.003     0.000     0.008    92.286     0.004     0.000 .00000E+00 0.000E+00 0.000E+00 0.000E+00 0.000E+00 0.000E+00
BIGSUB   4        0    3.44478E+00   222.800     0.000   167.166   126.415    47.639     0.138    47.434     0.074   132.979     1.136     0.070     0.009     0.002     0.002     0.007    85.422     0.009     0.000 .00000E+00 0.000E+00 0.000E+00 0.000E+00 0.000E+00 0.000E+00
BIGSUB   5        0    3.17237E+00   222.800     0.000   167.129   126.981    35.599     0.413    61.619     0.098   125.628     0.012     0.024     0.003     0.000     0.006     0.002    63.851     0.001     0.000 .00000E+00 0.000E+00 0.000E+00 0.000E+00 0.000E+00 0.000E+00
BIGSUB   1        0    4.11943E+00   466.600     0.000   131.839   116.717    94.167     4.793    78.830     0.251   297.998     0.017     0.042     0.005     0.002     0.002     0.004   218.695     0.052     0.000 .00000E+00 0.000E+00 0.000E+00 0.000E+00 0.000E+00 0.000E+00
BIGSUB   2        0    4.10671E+00   466.600     0.000   131.861   116.218    82.677     0.227    95.649     0.000   305.209     0.020     0.037     0.005     0.002     0.007     0.003   209.512     0.043     0.000 .00000E+00 0.000E+00 0.000E+00 0.000E+00 0.000E+00 0.000E+00
BIGSUB   3        0    4.62454E+00   466.600     0.000   131.809   115.695    87.527     0.354    74.785     0.195   305.388     0.436     0.079     0.010     0.002     0.001     0.008   230.364     0.040     0.000 .00000E+00 0.000E+00 0.000E+00 0.000E+00 0.000E+00 0.000E+00
BIGSUB   4        0    4.44478E+00   466.600     0.000   131.854   115.108    82.972     0.282    95.179     0.061   306.818     2.139     0.064     0.008     0.003     0.006     0.007   211.533     0.050     0.000 .00000E+00 0.000E+00 0.000E+00 0.000E+00 0.000E+00 0.000E+00
BIGSUB   5        0    4.17237E+00   466.600     0.000   131.871   117.359    69.984     0.777   148.467     0.050   306.931     0.014     0.027     0.003     0.001     0.017     0.003   158.359     0.032     0.000 .00000E+00 0.000E+00 0.000E+00 0.000E+00 0.000E+00 0.000E+00
BIGSUB   1        0    5.11943E+00   221.200     0.000   141.466    78.750    91.950     2.554    42.729     0.487   152.088     0.019     0.041     0.005     0.005     0.002     0.004   108.656     0.130     0.000 .00000E+00 0.000E+00 0.000E+00 0.000E+00 0.000E+00 0.000E+00
BIGSUB   2        0    5.10671E+00   221.200     0.000   141.601    79.926    79.216     0.107    51.743     0.000   152.862     0.023     0.038     0.005     0.005     0.004     0.004   101.078     0.115     0.000 .00000E+00 0.000E+00 0.000E+00 0.000E+00 0.000E+00 0.000E+00
BIGSUB   3        0    5.62454E+00   221.200     0.000   141.275    83.994    82.037     0.130    39.471     0.220   151.765     0.195     0.049     0.006     0.004     0.001     0.005   112.035     0.101     0.000 .00000E+00 0.000E+00 0.000E+00 0.000E+00 0.000E+00 0.000E+00
BIGSUB   4        0    5.44478E+00   221.200     0.000   141.558    79.347    79.793     0.122    50.950     0.067   153.275     0.879     0.044     0.005     0.005     0.003     0.004   102.217     0.115     0.000 .00000E+00 0.000E+00 0.000E+00 0.000E+00 0.000E+00 0.000E+00
BIGSUB   5        0    5.17237E+00   221.200     0.000   141.663    86.221    61.883     0.366    72.891     0.084   149.415     0.016     0.029     0.004     0.004     0.008     0.003    76.387     0.087     0.000 .00000E+00 0.000E+00 0.000E+00 0.000E+00 0.000E+00 0.000E+00
BIGSUB   1        0    6.11943E+00   204.500     0.000   138.280    83.605    82.718     2.931    32.707     1.217   129.563     0.016     0.037     0.005     0.003     0.002     0.003    95.432     0.112     0.000 .00000E+00 0.000E+00 0.000E+00 0.000E+00 0.000E+00 0.000E+00
BIGSUB   2        0    6.10671E+00   204.500     0.000   138.442    85.123    71.971     0.044    39.663     0.000   127.510     0.019     0.035     0.004     0.003     0.003     0.003    87.815     0.095     0.000 .00000E+00 0.000E+00 0.000E+00 0.000E+00 0.000E+00 0.000E+00
BIGSUB   3        0    6.62454E+00   204.500     0.000   138.051    82.815    76.035     0.133    31.403     0.197   128.787     0.139     0.043     0.005     0.003     0.001     0.004    97.155     0.090     0.000 .00000E+00 0.000E+00 0.000E+00 0.000E+00 0.000E+00 0.000E+00
BIGSUB   4        0    6.44478E+00   204.500     0.000   138.390    84.001    72.606     0.073    39.554     0.061   128.624     0.609     0.039     0.005     0.004     0.003     0.004    88.977     0.095     0.000 .00000E+00 0.000E+00 0.000E+00 0.000E+00 0.000E+00 0.000E+00
BIGSUB   5        0    6.17237E+00   204.500     0.000   138.516    91.451    54.832     0.193    54.240     0.084   120.729     0.014     0.026     0.003     0.003     0.006     0.002    66.361     0.072     0.000 .00000E+00 0.000E+00 0.000E+00 0.000E+00 0.000E+00 0.000E+00
BIGSUB   1        0    7.11943E+00   729.100     0.000   111.619    65.614    95.721     9.636   449.073     1.209   624.556     0.934     1.993     0.245     0.011     0.020     0.186   174.065     0.275     0.000 .00000E+00 0.000E+00 0.000E+00 0.000E+00 0.000E+00 0.000E+00
BIGSUB   2        0    7.10671E+00   729.100     0.000   111.658    66.364    86.991     3.064   468.776     0.000   628.583     1.147     1.915     0.236     0.012     0.027     0.179   159.778     0.241     0.000 .00000E+00 0.000E+00 0.000E+00 0.000E+00 0.000E+00 0.000E+00
BIGSUB   3        0    7.62454E+00   729.100     0.000   111.565    63.077    92.486     2.649   452.357     0.183   629.643     2.827     2.179     0.271     0.015     0.017     0.206   177.075     0.270     0.000 .00000E+00 0.000E+00 0.000E+00 0.000E+00 0.000E+00 0.000E+00
BIGSUB   4        0    7.44478E+00   729.100     0.000   111.646    65.696    87.394     2.922   468.272     0.055   629.509     7.209     2.029     0.251     0.012     0.023     0.190   161.154     0.243     0.000 .00000E+00 0.000E+00 0.000E+00 0.000E+00 0.000E+00 0.000E+00
BIGSUB   5        0    7.17237E+00   729.100     0.000   111.676    70.400    71.635     2.904   504.416     0.065   625.234     0.816     1.422     0.175     0.010     0.044     0.133   120.712     0.182     0.000 .00000E+00 0.000E+00 0.000E+00 0.000E+00 0.000E+00 0.000E+00
BIGSUB   1        0    8.11943E+00   116.200     0.000   134.717    73.798    79.169     1.901     3.916     3.951    78.456     0.013     0.026     0.003     0.000     0.000     0.002    70.356     0.071     0.000 .00000E+00 0.000E+00 0.000E+00 0.000E+00 0.000E+00 0.000E+00
BIGSUB   2        0    8.10671E+00   116.200     0.000   134.699    75.104    68.445     0.941     8.060     0.000    74.345     0.016     0.025     0.003     0.001     0.001     0.002    66.242     0.065     0.000 .00000E+00 0.000E+00 0.000E+00 0.000E+00 0.000E+00 0.000E+00
BIGSUB   3        0    8.62454E+00   116.200     0.000   134.741    71.391    75.453     0.745     4.605     0.192    78.257     0.082     0.031     0.004     0.001     0.000     0.003    73.419     0.072     0.000 .00000E+00 0.000E+00 0.000E+00 0.000E+00 0.000E+00 0.000E+00
BIGSUB   4        0    8.44478E+00   116.200     0.000   134.705    74.229    69.058     0.881     7.967     0.057    75.281     0.324     0.026     0.003     0.001     0.001     0.002    67.215     0.069     0.000 .00000E+00 0.000E+00 0.000E+00 0.000E+00 0.000E+00 0.000E+00
BIGSUB   5        0    8.17237E+00   116.200     0.000   134.691    80.457    52.453     0.944    17.390     0.093    67.615     0.011     0.019     0.002     0.001     0.002     0.002    50.079     0.049     0.000 .00000E+00 0.000E+00 0.000E+00 0.000E+00 0.000E+00 0.000E+00
BIGSUB   1        0    9.11943E+00   109.600     0.000   137.661    57.132    77.669     0.054     9.256     0.190    54.764     0.100     0.200     0.025     0.001     0.000     0.019    45.099     0.063     0.000 .00000E+00 0.000E+00 0.000E+00 0.000E+00 0.000E+00 0.000E+00
BIGSUB   2        0    9.10671E+00   109.600     0.000   137.539    56.017    66.229     0.043    13.026     0.000    56.256     0.117     0.182     0.022     0.001     0.001     0.017    43.181     0.050     0.000 .00000E+00 0.000E+00 0.000E+00 0.000E+00 0.000E+00 0.000E+00
BIGSUB   3        0    9.62454E+00   109.600     0.000   137.834    54.583    72.760     0.046    10.207     0.097    58.319     0.268     0.209     0.026     0.002     0.000     0.020    47.971     0.058     0.000 .00000E+00 0.000E+00 0.000E+00 0.000E+00 0.000E+00 0.000E+00
BIGSUB   4        0    9.44478E+00   109.600     0.000   137.578    55.554    66.675     0.047    13.009     0.030    56.924     0.602     0.189     0.023     0.002     0.001     0.018    43.838     0.050     0.000 .00000E+00 0.000E+00 0.000E+00 0.000E+00 0.000E+00 0.000E+00
BIGSUB   5        0    9.17237E+00   109.600     0.000   137.482    57.832    51.161     0.125    20.604     0.021    53.351     0.084     0.136     0.017     0.001     0.003     0.013    32.672     0.038     0.000 .00000E+00 0.000E+00 0.000E+00 0.000E+00 0.000E+00 0.000E+00
BIGSUB   1        0   10.11943E+00    90.500     0.000   176.568    52.059    68.601     0.039     9.817     0.074    47.537     0.146     0.323     0.040     0.004     0.000     0.030    37.459     0.054     0.000 .00000E+00 0.000E+00 0.000E+00 0.000E+00 0.000E+00 0.000E+00
BIGSUB   2        0   10.10671E+00    90.500     0.000   176.496    50.557    57.549     0.049    12.399     0.000    48.416     0.168     0.275     0.034     0.004     0.001     0.026    35.973     0.040     0.000 .00000E+00 0.000E+00 0.000E+00 0.000E+00 0.000E+00 0.000E+00
BIGSUB   3        0   10.62454E+00    90.500     0.000   176.668    49.229    63.513     0.033    10.454     0.064    50.358     0.325     0.299     0.037     0.006     0.000     0.029    39.800     0.046     0.000 .00000E+00 0.000E+00 0.000E+00 0.000E+00 0.000E+00 0.000E+00
BIGSUB   4        0   10.44478E+00    90.500     0.000   176.519    50.072    57.914     0.048    12.472     0.020    48.995     0.542     0.266     0.033     0.005     0.001     0.025    36.460     0.040     0.000 .00000E+00 0.000E+00 0.000E+00 0.000E+00 0.000E+00 0.000E+00
BIGSUB   5        0   10.17237E+00    90.500     0.000   176.464    51.809    44.004     0.140    18.355     0.008    45.613     0.120     0.208     0.026     0.003     0.002     0.020    27.201     0.031     0.000 .00000E+00 0.000E+00 0.000E+00 0.000E+00 0.000E+00 0.000E+00
BIGSUB   1        0   11.11943E+00   332.200     0.000   134.745    88.005    88.789     1.955    56.003     0.082   221.936     1.567     3.022     0.370     0.003     0.002     0.285   165.709     0.307     0.000 .00000E+00 0.000E+00 0.000E+00 0.000E+00 0.000E+00 0.000E+00
BIGSUB   2        0   11.10671E+00   332.200     0.000   134.643    89.640    73.131     0.098    68.819     0.000   226.579     1.795     2.448     0.300     0.003     0.005     0.232   157.725     0.275     0.000 .00000E+00 0.000E+00 0.000E+00 0.000E+00 0.000E+00 0.000E+00
BIGSUB   3        0   11.62454E+00   332.200     0.000   134.890    85.280    80.177     0.242    55.695     0.070   229.735     3.121     2.710     0.336     0.004     0.002     0.264   173.938     0.308     0.000 .00000E+00 0.000E+00 0.000E+00 0.000E+00 0.000E+00 0.000E+00
BIGSUB   4        0   11.44478E+00   332.200     0.000   134.675    88.321    73.722     0.149    67.967     0.022   227.632     3.824     2.356     0.290     0.004     0.004     0.225   159.609     0.275     0.000 .00000E+00 0.000E+00 0.000E+00 0.000E+00 0.000E+00 0.000E+00
BIGSUB   5        0   11.17237E+00   332.200     0.000   134.595    96.646    57.305     0.376   102.406     0.012   221.659     1.281     1.860     0.228     0.003     0.012     0.176   119.201     0.207     0.000 .00000E+00 0.000E+00 0.000E+00 0.000E+00 0.000E+00 0.000E+00
BIGSUB   1        0   12.11943E+00   450.400     0.000   147.399    97.442    92.365     8.989   140.530     0.176   340.039     3.242     7.732     0.947     0.004     0.004     0.730   199.195     0.313     0.000 .00000E+00 0.000E+00 0.000E+00 0.000E+00 0.000E+00 0.000E+00
BIGSUB   2        0   12.10671E+00   450.400     0.000   147.337    99.391    81.640     1.398   156.882     0.000   340.488     3.978     6.560     0.805     0.004     0.009     0.624   183.576     0.228     0.000 .00000E+00 0.000E+00 0.000E+00 0.000E+00 0.000E+00 0.000E+00
BIGSUB   3        0   12.62454E+00   450.400     0.000   147.485    95.426    89.906     1.298   142.947     0.152   343.403     6.739     7.159     0.886     0.006     0.004     0.700   200.276     0.252     0.000 .00000E+00 0.000E+00 0.000E+00 0.000E+00 0.000E+00 0.000E+00
BIGSUB   4        0   12.44478E+00   450.400     0.000   147.357    98.257    82.307     1.368   156.354     0.047   341.611     6.925     6.097     0.749     0.006     0.007     0.584   185.180     0.234     0.000 .00000E+00 0.000E+00 0.000E+00 0.000E+00 0.000E+00 0.000E+00
BIGSUB   5        0   12.17237E+00   450.400     0.000   147.309   105.394    64.129     1.653   197.342     0.039   336.099     2.843     5.013     0.615     0.004     0.019     0.476   138.682     0.173     0.000 .00000E+00 0.000E+00 0.000E+00 0.000E+00 0.000E+00 0.000E+00
BIGSUB   1        0 2014.11943E+00  3844.300     0.000  1708.431  1039.596    92.365    54.930  1117.104     9.205  2765.885    14.165    40.452     4.947     0.038     0.045     3.900  1637.181     1.809     0.001 .00000E+00 0.000E+00 0.000E+00 0.000E+00 0.000E+00 0.000E+00
BIGSUB   2        0 2014.10671E+00  3844.300     0.000  1708.193  1044.045    81.640    11.450  1261.850     0.000  2790.616    17.644    37.558     4.595     0.039     0.083     3.644  1528.293     1.482     0.000 .00000E+00 0.000E+00 0.000E+00 0.000E+00 0.000E+00 0.000E+00
BIGSUB   3        0 2014.62454E+00  3844.300     0.000  1708.767  1021.608    89.906    10.478  1134.336     2.064  2813.539    32.973    51.391     6.340     0.054     0.038     5.139  1676.699     1.608     0.000 .00000E+00 0.000E+00 0.000E+00 0.000E+00 0.000E+00 0.000E+00
BIGSUB   4        0 2014.44478E+00  3844.301     0.000  1708.269  1032.773    82.307    11.155  1257.638     0.625  2802.392    40.973    40.425     4.947     0.058     0.070     3.953  1543.666     1.573     0.000 .00000E+00 0.000E+00 0.000E+00 0.000E+00 0.000E+00 0.000E+00
BIGSUB   5        0 2014.17237E+00  3844.300     0.000  1708.082  1089.874    64.129    13.107  1590.775     0.772  2747.099    12.604    28.240     3.455     0.034     0.164     2.737  1154.979     1.123     0.000 .00000E+00 0.000E+00 0.000E+00 0.000E+00 0.000E+00 0.000E+00
BIGSUB   1        0    1.11943E+00   682.500     0.000   139.050   101.334    93.367    20.000   239.843     1.074   553.488    13.992    33.792     4.127     0.004     0.014     3.279   312.363     0.454     0.000 .00000E+00 0.000E+00 0.000E+00 0.000E+00 0.000E+00 0.000E+00
BIGSUB   2        0    1.10671E+00   682.500     0.000   138.918   103.372    87.497     7.857   273.395     0.000   558.293    18.575    33.318     4.069     0.004     0.021     3.251   284.852     0.376     0.000 .00000E+00 0.000E+00 0.000E+00 0.000E+00 0.000E+00 0.000E+00
BIGSUB   3        0    1.62454E+00   682.500     0.000   139.237   100.657    93.168     7.027   257.100     0.262   564.146    32.493    43.093     5.280     0.006     0.013     4.241   306.741     0.407     0.000 .00000E+00 0.000E+00 0.000E+00 0.000E+00 0.000E+00 0.000E+00
BIGSUB   4        0    1.44478E+00   682.500     0.000   138.960   102.526    87.427     7.448   273.160     0.077   560.307    28.358    36.352     4.439     0.006     0.019     3.571   287.025     0.394     0.000 .00000E+00 0.000E+00 0.000E+00 0.000E+00 0.000E+00 0.000E+00
BIGSUB   5        0    1.17237E+00   682.500     0.000   138.857   107.894    77.175     7.252   333.409     0.130   548.796    13.242    24.941     3.046     0.004     0.036     2.431   215.205     0.284     0.000 .00000E+00 0.000E+00 0.000E+00 0.000E+00 0.000E+00 0.000E+00
BIGSUB   1        0    2.11943E+00   310.400     0.000   148.590   109.915    76.453     5.186    69.242     7.842   229.509     4.477     6.065     0.741     0.000     0.002     0.589   152.136     0.076     0.001 .00000E+00 0.000E+00 0.000E+00 0.000E+00 0.000E+00 0.000E+00
BIGSUB   2        0    2.10671E+00   310.400     0.000   148.456   110.685    66.598     1.537    87.748     0.000   227.509     5.953     5.296     0.647     0.000     0.006     0.518   139.679     0.057     0.000 .00000E+00 0.000E+00 0.000E+00 0.000E+00 0.000E+00 0.000E+00
BIGSUB   3        0    2.62454E+00   310.400     0.000   148.781   107.603    75.815     1.437    75.741     0.318   228.155    10.971     5.945     0.729     0.002     0.001     0.587   152.021     0.073     0.000 .00000E+00 0.000E+00 0.000E+00 0.000E+00 0.000E+00 0.000E+00
BIGSUB   4        0    2.44478E+00   310.400     0.000   148.498   109.501    67.561     1.476    86.748     0.093   227.890     9.948     4.964     0.606     0.006     0.005     0.488   140.971     0.097     0.000 .00000E+00 0.000E+00 0.000E+00 0.000E+00 0.000E+00 0.000E+00
BIGSUB   5        0    2.17237E+00   310.400     0.000   148.393   113.650    50.673     1.695   122.549     0.187   228.444     4.245     4.054     0.495     0.000     0.013     0.396   105.623     0.043     0.000 .00000E+00 0.000E+00 0.000E+00 0.000E+00 0.000E+00 0.000E+00
BIGSUB   1        0    3.11943E+00   174.400     0.000   136.328    99.545    74.198     0.084     6.859     5.044    82.147     0.001     0.003     0.000     0.000     0.000     0.000    69.893     0.001     0.000 .00000E+00 0.000E+00 0.000E+00 0.000E+00 0.000E+00 0.000E+00
BIGSUB   2        0    3.10671E+00   174.400     0.000   136.233    98.375    61.034     0.070    12.763     0.000    81.346     0.002     0.002     0.000     0.000     0.001     0.000    68.476     0.001     0.000 .00000E+00 0.000E+00 0.000E+00 0.000E+00 0.000E+00 0.000E+00
BIGSUB   3        0    3.62454E+00   174.400     0.000   136.463    96.745    68.554     0.072     8.666     0.289    84.916     0.092     0.006     0.001     0.000     0.000     0.001    75.864     0.002     0.000 .00000E+00 0.000E+00 0.000E+00 0.000E+00 0.000E+00 0.000E+00
BIGSUB   4        0    3.44478E+00   174.400     0.000   136.263    97.216    61.853     0.076    12.990     0.084    82.716     0.469     0.007     0.001     0.000     0.001     0.001    69.539     0.005     0.000 .00000E+00 0.000E+00 0.000E+00 0.000E+00 0.000E+00 0.000E+00
BIGSUB   5        0    3.17237E+00   174.400     0.000   136.189   100.645    47.484     0.202    24.735     0.145    76.781     0.001     0.002     0.000     0.000     0.003     0.000    51.792     0.001     0.000 .00000E+00 0.000E+00 0.000E+00 0.000E+00 0.000E+00 0.000E+00
BIGSUB   1        0    4.11943E+00   364.500     0.000   144.793    99.840    85.926     0.237   115.688     0.253   253.474     0.050     0.086     0.010     0.001     0.003     0.008   137.236     0.027     0.000 .00000E+00 0.000E+00 0.000E+00 0.000E+00 0.000E+00 0.000E+00
BIGSUB   2        0    4.10671E+00   364.500     0.000   144.807    98.681    68.968     0.079   124.481     0.000   258.130     0.063     0.077     0.009     0.001     0.006     0.007   133.557     0.021     0.000 .00000E+00 0.000E+00 0.000E+00 0.000E+00 0.000E+00 0.000E+00
BIGSUB   3        0    4.62454E+00   364.500     0.000   144.773    97.951    75.732     0.203   113.954     0.192   259.707     0.763     0.113     0.014     0.001     0.001     0.011   145.478     0.019     0.000 .00000E+00 0.000E+00 0.000E+00 0.000E+00 0.000E+00 0.000E+00
BIGSUB   4        0    4.44478E+00   364.500     0.000   144.802    97.687    69.696     0.125   124.183     0.060   259.230     3.486     0.095     0.012     0.001     0.005     0.010   134.900     0.023     0.000 .00000E+00 0.000E+00 0.000E+00 0.000E+00 0.000E+00 0.000E+00
BIGSUB   5        0    4.17237E+00   364.500     0.000   144.813   101.789    52.742     0.281   156.388     0.049   257.493     0.045     0.058     0.007     0.000     0.015     0.005   100.962     0.016     0.000 .00000E+00 0.000E+00 0.000E+00 0.000E+00 0.000E+00 0.000E+00
BIGSUB   1        0    5.11943E+00   421.400     0.000   126.110    89.702    91.850    10.853   109.065     0.742   315.461     0.059     0.120     0.015     0.008     0.003     0.011   205.383     0.185     0.000 .00000E+00 0.000E+00 0.000E+00 0.000E+00 0.000E+00 0.000E+00
BIGSUB   2        0    5.10671E+00   421.400     0.000   126.229    91.897    81.361     1.876   126.330     0.000   314.879     0.064     0.092     0.011     0.008     0.008     0.008   188.471     0.167     0.000 .00000E+00 0.000E+00 0.000E+00 0.000E+00 0.000E+00 0.000E+00
BIGSUB   3        0    5.62454E+00   421.400     0.000   125.940    91.566    89.260     1.716   110.314     0.209   314.399     0.478     0.105     0.013     0.007     0.002     0.010   203.804     0.149     0.000 .00000E+00 0.000E+00 0.000E+00 0.000E+00 0.000E+00 0.000E+00
BIGSUB   4        0    5.44478E+00   421.400     0.000   126.191    91.100    82.090     1.824   125.383     0.065   315.782     2.060     0.091     0.011     0.009     0.006     0.008   190.259     0.172     0.000 .00000E+00 0.000E+00 0.000E+00 0.000E+00 0.000E+00 0.000E+00
BIGSUB   5        0    5.17237E+00   421.400     0.000   126.284    98.615    63.873     1.967   166.889     0.081   309.515     0.046     0.070     0.009     0.007     0.017     0.006   142.463     0.126     0.000 .00000E+00 0.000E+00 0.000E+00 0.000E+00 0.000E+00 0.000E+00
BIGSUB   1        0    6.11943E+00   230.400     0.000   162.560    71.728    88.271     3.427    49.090     2.765   161.245     0.040     0.094     0.012     0.008     0.002     0.009   109.120     0.126     0.000 .00000E+00 0.000E+00 0.000E+00 0.000E+00 0.000E+00 0.000E+00
BIGSUB   2        0    6.10671E+00   230.400     0.000   162.783    72.916    78.659     0.849    58.501     0.000   158.804     0.043     0.070     0.009     0.009     0.004     0.007   100.232     0.109     0.000 .00000E+00 0.000E+00 0.000E+00 0.000E+00 0.000E+00 0.000E+00
BIGSUB   3        0    6.62454E+00   230.400     0.000   162.242    71.650    85.006     0.770    52.667     0.216   161.855     0.235     0.074     0.009     0.011     0.001     0.007   108.907     0.109     0.000 .00000E+00 0.000E+00 0.000E+00 0.000E+00 0.000E+00 0.000E+00
BIGSUB   4        0    6.44478E+00   230.400     0.000   162.712    72.041    78.948     0.823    58.949     0.065   160.203     0.946     0.069     0.009     0.010     0.003     0.006   101.120     0.109     0.000 .00000E+00 0.000E+00 0.000E+00 0.000E+00 0.000E+00 0.000E+00
BIGSUB   5        0    6.17237E+00   230.400     0.000   162.885    76.214    64.296     0.967    76.573     0.111   152.531     0.030     0.054     0.007     0.007     0.008     0.005    75.771     0.082     0.000 .00000E+00 0.000E+00 0.000E+00 0.000E+00 0.000E+00 0.000E+00
BIGSUB   1        0    7.11943E+00   101.300     0.000   169.927    71.589    72.036     0.060     3.131     0.625    47.936     0.002     0.006     0.001     0.001     0.000     0.001    43.915     0.039     0.000 .00000E+00 0.000E+00 0.000E+00 0.000E+00 0.000E+00 0.000E+00
BIGSUB   2        0    7.10671E+00   101.300     0.000   170.117    71.627    61.194     0.062     6.644     0.000    48.253     0.002     0.004     0.001     0.001     0.001     0.000    41.541     0.033     0.000 .00000E+00 0.000E+00 0.000E+00 0.000E+00 0.000E+00 0.000E+00
BIGSUB   3        0    7.62454E+00   101.300     0.000   169.657    69.005    68.237     0.058     3.814     0.193    50.479     0.025     0.005     0.001     0.002     0.000     0.000    46.409     0.040     0.000 .00000E+00 0.000E+00 0.000E+00 0.000E+00 0.000E+00 0.000E+00
BIGSUB   4        0    7.44478E+00   101.300     0.000   170.057    70.874    61.662     0.064     6.510     0.057    48.896     0.118     0.004     0.000     0.001     0.001     0.000    42.263     0.034     0.000 .00000E+00 0.000E+00 0.000E+00 0.000E+00 0.000E+00 0.000E+00
BIGSUB   5        0    7.17237E+00   101.300     0.000   170.205    74.842    46.605     0.183    13.367     0.045    44.924     0.002     0.003     0.000     0.001     0.002     0.000    31.438     0.025     0.000 .00000E+00 0.000E+00 0.000E+00 0.000E+00 0.000E+00 0.000E+00
BIGSUB   1        0    8.11943E+00   171.700     0.000   171.986    59.586    69.072     0.111    40.808     0.147   115.376     0.124     0.316     0.039     0.003     0.002     0.030    74.202     0.122     0.000 .00000E+00 0.000E+00 0.000E+00 0.000E+00 0.000E+00 0.000E+00
BIGSUB   2        0    8.10671E+00   171.700     0.000   172.132    56.922    56.766     0.038    47.582     0.000   119.267     0.124     0.222     0.027     0.003     0.003     0.021    71.630     0.115     0.000 .00000E+00 0.000E+00 0.000E+00 0.000E+00 0.000E+00 0.000E+00
BIGSUB   3        0    8.62454E+00   171.700     0.000   171.778    56.125    63.178     0.096    42.254     0.128   120.768     0.298     0.213     0.026     0.004     0.001     0.020    78.333     0.131     0.000 .00000E+00 0.000E+00 0.000E+00 0.000E+00 0.000E+00 0.000E+00
BIGSUB   4        0    8.44478E+00   171.700     0.000   172.086    56.605    57.064     0.059    47.306     0.040   119.773     0.731     0.213     0.026     0.003     0.003     0.020    72.373     0.114     0.000 .00000E+00 0.000E+00 0.000E+00 0.000E+00 0.000E+00 0.000E+00
BIGSUB   5        0    8.17237E+00   171.700     0.000   172.199    57.435    43.206     0.133    63.441     0.017   117.643     0.089     0.169     0.021     0.002     0.007     0.016    54.124     0.087     0.000 .00000E+00 0.000E+00 0.000E+00 0.000E+00 0.000E+00 0.000E+00
BIGSUB   1        0    9.11943E+00    30.500     0.000   151.122    29.925    61.146     0.000     0.000     0.054     8.712     0.000     0.000     0.000     0.000     0.000     0.000     8.493     0.017     0.000 .00000E+00 0.000E+00 0.000E+00 0.000E+00 0.000E+00 0.000E+00
BIGSUB   2        0    9.10671E+00    30.500     0.000   151.098    28.428    50.189     0.003     0.023     0.000     8.681     0.000     0.000     0.000     0.000     0.000     0.000     8.615     0.021     0.000 .00000E+00 0.000E+00 0.000E+00 0.000E+00 0.000E+00 0.000E+00
BIGSUB   3        0    9.62454E+00    30.500     0.000   151.157    28.016    55.875     0.000     0.005     0.046     9.863     0.002     0.000     0.000     0.000     0.000     0.000     9.772     0.026     0.000 .00000E+00 0.000E+00 0.000E+00 0.000E+00 0.000E+00 0.000E+00
BIGSUB   4        0    9.44478E+00    30.500     0.000   151.106    28.196    50.440     0.002     0.064     0.014     8.974     0.009     0.000     0.000     0.000     0.000     0.000     8.855     0.022     0.000 .00000E+00 0.000E+00 0.000E+00 0.000E+00 0.000E+00 0.000E+00
BIGSUB   5        0    9.17237E+00    30.500     0.000   151.086    28.866    38.244     0.009     0.064     0.009     6.637     0.000     0.000     0.000     0.000     0.000     0.000     6.517     0.016     0.000 .00000E+00 0.000E+00 0.000E+00 0.000E+00 0.000E+00 0.000E+00
BIGSUB   1        0   10.11943E+00   211.100     0.000   148.167    66.377    72.339     0.152    32.501     0.053   133.194     0.360     0.914     0.112     0.003     0.001     0.086   100.511     0.195     0.000 .00000E+00 0.000E+00 0.000E+00 0.000E+00 0.000E+00 0.000E+00
BIGSUB   2        0   10.10671E+00   211.100     0.000   148.156    64.654    57.294     0.093    41.407     0.000   138.909     0.350     0.614     0.075     0.003     0.003     0.059    97.469     0.177     0.000 .00000E+00 0.000E+00 0.000E+00 0.000E+00 0.000E+00 0.000E+00
BIGSUB   3        0   10.62454E+00   211.100     0.000   148.182    63.140    63.578     0.130    32.681     0.045   139.783     0.663     0.562     0.070     0.005     0.001     0.054   107.025     0.201     0.000 .00000E+00 0.000E+00 0.000E+00 0.000E+00 0.000E+00 0.000E+00
BIGSUB   4        0   10.44478E+00   211.100     0.000   148.159    64.140    57.654     0.111    40.669     0.014   139.298     1.039     0.560     0.069     0.004     0.003     0.054    98.583     0.178     0.000 .00000E+00 0.000E+00 0.000E+00 0.000E+00 0.000E+00 0.000E+00
BIGSUB   5        0   10.17237E+00   211.100     0.000   148.151    66.653    43.981     0.295    64.481     0.007   138.178     0.251     0.472     0.058     0.003     0.008     0.045    73.652     0.134     0.000 .00000E+00 0.000E+00 0.000E+00 0.000E+00 0.000E+00 0.000E+00
BIGSUB   1        0   11.11943E+00   541.900     0.000   148.940    74.100    89.953    10.600   211.747     0.087   437.704     6.893    13.676     1.676     0.003     0.006     1.295   225.773     0.414     0.000 .00000E+00 0.000E+00 0.000E+00 0.000E+00 0.000E+00 0.000E+00
BIGSUB   2        0   11.10671E+00   541.900     0.000   148.890    73.434    80.285     1.723   229.891     0.000   441.909     7.784     9.898     1.216     0.003     0.012     0.951   211.993     0.329     0.000 .00000E+00 0.000E+00 0.000E+00 0.000E+00 0.000E+00 0.000E+00
BIGSUB   3        0   11.62454E+00   541.900     0.000   149.011    71.048    88.632     1.671   211.578     0.074   442.224    12.916     8.579     1.062     0.005     0.004     0.838   230.547     0.368     0.000 .00000E+00 0.000E+00 0.000E+00 0.000E+00 0.000E+00 0.000E+00
BIGSUB   4        0   11.44478E+00   541.900     0.000   148.906    72.635    80.895     1.698   228.496     0.023   442.485    13.292     8.482     1.045     0.004     0.010     0.826   213.941     0.339     0.000 .00000E+00 0.000E+00 0.000E+00 0.000E+00 0.000E+00 0.000E+00
BIGSUB   5        0   11.17237E+00   541.900     0.000   148.867    76.868    63.508     1.780   282.214     0.016   442.328     5.560     7.700     0.945     0.003     0.026     0.738   160.069     0.249     0.000 .00000E+00 0.000E+00 0.000E+00 0.000E+00 0.000E+00 0.000E+00
BIGSUB   1        0   12.11943E+00   597.700     0.000   160.158    80.738    94.035    11.191   288.005     0.206   498.536    13.882    13.071     1.601     0.002     0.006     1.241   210.182     0.293     0.000 .00000E+00 0.000E+00 0.000E+00 0.000E+00 0.000E+00 0.000E+00
BIGSUB   2        0   12.10671E+00   597.700     0.000   160.150    80.589    85.030     3.933   311.666     0.000   505.304    16.781     9.199     1.129     0.002     0.013     0.887   193.607     0.235     0.000 .00000E+00 0.000E+00 0.000E+00 0.000E+00 0.000E+00 0.000E+00
BIGSUB   3        0   12.62454E+00   597.700     0.000   160.170    78.953    93.810     3.601   298.166     0.180   506.733    28.054     7.218     0.893     0.003     0.004     0.709   208.356     0.254     0.000 .00000E+00 0.000E+00 0.000E+00 0.000E+00 0.000E+00 0.000E+00
BIGSUB   4        0   12.44478E+00   597.700     0.000   160.153    79.961    85.639     3.757   310.898     0.055   506.126    26.053     7.002     0.862     0.003     0.010     0.686   195.143     0.246     0.000 .00000E+00 0.000E+00 0.000E+00 0.000E+00 0.000E+00 0.000E+00
BIGSUB   5        0   12.17237E+00   597.700     0.000   160.146    82.778    69.186     3.505   357.037     0.046   503.343    11.978     7.300     0.896     0.002     0.028     0.702   146.224     0.178     0.000 .00000E+00 0.000E+00 0.000E+00 0.000E+00 0.000E+00 0.000E+00
BIGSUB   1        0 2015.11943E+00  3837.800     0.000  1807.732   954.378    94.035    61.902  1165.979    18.892  2836.783    39.879    68.142     8.334     0.033     0.039     6.548  1649.209     1.951     0.002 .00000E+00 0.000E+00 0.000E+00 0.000E+00 0.000E+00 0.000E+00
BIGSUB   2        0 2015.10671E+00  3837.800     0.000  1807.968   951.580    85.030    18.121  1320.431     0.000  2861.284    49.742    58.792     7.194     0.035     0.079     5.708  1540.122     1.641     0.000 .00000E+00 0.000E+00 0.000E+00 0.000E+00 0.000E+00 0.000E+00
BIGSUB   3        0 2015.62454E+00  3837.801     0.000  1807.392   932.460    93.810    16.780  1206.941     2.152  2883.028    86.990    65.912     8.098     0.046     0.028     6.477  1673.258     1.779     0.000 .00000E+00 0.000E+00 0.000E+00 0.000E+00 0.000E+00 0.000E+00
BIGSUB   4        0 2015.44478E+00  3837.801     0.000  1807.894   942.482    85.639    17.464  1315.355     0.648  2871.680    86.510    57.841     7.081     0.048     0.065     5.671  1554.970     1.732     0.000 .00000E+00 0.000E+00 0.000E+00 0.000E+00 0.000E+00 0.000E+00
BIGSUB   5        0 2015.17237E+00  3837.800     0.000  1808.076   986.250    69.186    18.269  1661.148     0.844  2826.612    35.489    44.821     5.484     0.030     0.162     4.344  1163.840     1.240     0.000 .00000E+00 0.000E+00 0.000E+00 0.000E+00 0.000E+00 0.000E+00
BIGSUB   1        0    1.11943E+00   122.100     0.000   179.112    84.814    70.602     1.256     5.531     0.288    65.919     0.347     0.639     0.078     0.000     0.000     0.062    59.873     0.042     0.000 .00000E+00 0.000E+00 0.000E+00 0.000E+00 0.000E+00 0.000E+00
BIGSUB   2        0    1.10671E+00   122.100     0.000   179.078    84.666    60.966     0.573     9.921     0.000    66.387     0.422     0.629     0.077     0.000     0.001     0.062    56.409     0.034     0.000 .00000E+00 0.000E+00 0.000E+00 0.000E+00 0.000E+00 0.000E+00
BIGSUB   3        0    1.62454E+00   122.100     0.000   179.160    82.569    69.080     0.559     7.151     0.263    69.895     0.860     1.067     0.130     0.000     0.000     0.105    62.427     0.039     0.000 .00000E+00 0.000E+00 0.000E+00 0.000E+00 0.000E+00 0.000E+00
BIGSUB   4        0    1.44478E+00   122.100     0.000   179.089    83.835    61.653     0.548     9.869     0.077    67.311     0.875     0.983     0.120     0.000     0.001     0.098    57.309     0.037     0.000 .00000E+00 0.000E+00 0.000E+00 0.000E+00 0.000E+00 0.000E+00
BIGSUB   5        0    1.17237E+00   122.100     0.000   179.062    87.955    46.347     0.579    17.936     0.127    60.794     0.303     0.470     0.057     0.000     0.002     0.046    42.673     0.026     0.000 .00000E+00 0.000E+00 0.000E+00 0.000E+00 0.000E+00 0.000E+00
BIGSUB   1        0    2.11943E+00   182.200     0.000   176.482    92.215    68.536     0.109     7.474     0.189    92.060     0.003     0.011     0.001     0.000     0.000     0.001    84.172     0.004     0.000 .00000E+00 0.000E+00 0.000E+00 0.000E+00 0.000E+00 0.000E+00
BIGSUB   2        0    2.10671E+00   182.200     0.000   176.537    89.314    54.181     0.040    17.136     0.000    99.399     0.004     0.010     0.001     0.000     0.002     0.001    82.202     0.004     0.000 .00000E+00 0.000E+00 0.000E+00 0.000E+00 0.000E+00 0.000E+00
BIGSUB   3        0    2.62454E+00   182.200     0.000   176.402    87.991    62.270     0.094     9.600     0.171   100.823     0.094     0.107     0.013     0.001     0.000     0.011    90.995     0.016     0.000 .00000E+00 0.000E+00 0.000E+00 0.000E+00 0.000E+00 0.000E+00
BIGSUB   4        0    2.44478E+00   182.200     0.000   176.520    88.481    55.029     0.060    16.619     0.051   100.093     0.419     0.361     0.044     0.003     0.002     0.037    83.363     0.045     0.000 .00000E+00 0.000E+00 0.000E+00 0.000E+00 0.000E+00 0.000E+00
BIGSUB   5        0    2.17237E+00   182.200     0.000   176.563    87.876    41.273     0.125    36.864     0.066    99.177     0.003     0.007     0.001     0.000     0.005     0.001    62.186     0.003     0.000 .00000E+00 0.000E+00 0.000E+00 0.000E+00 0.000E+00 0.000E+00
BIGSUB   1        0    3.11943E+00   302.600     0.000   136.302   101.898    86.160     0.207    50.483     0.165   181.841     0.012     0.028     0.003     0.000     0.001     0.003   130.986     0.004     0.000 .00000E+00 0.000E+00 0.000E+00 0.000E+00 0.000E+00 0.000E+00
BIGSUB   2        0    3.10671E+00   302.600     0.000   136.164   100.234    72.531     0.172    57.032     0.000   182.594     0.014     0.029     0.004     0.000     0.004     0.003   125.504     0.003     0.000 .00000E+00 0.000E+00 0.000E+00 0.000E+00 0.000E+00 0.000E+00
BIGSUB   3        0    3.62454E+00   302.600     0.000   136.499    99.346    76.397     0.178    50.235     0.142   187.729     0.284     0.160     0.019     0.000     0.001     0.016   137.297     0.005     0.000 .00000E+00 0.000E+00 0.000E+00 0.000E+00 0.000E+00 0.000E+00
BIGSUB   4        0    3.44478E+00   302.600     0.000   136.207    99.325    72.415     0.188    57.384     0.044   184.481     1.368     0.591     0.072     0.001     0.003     0.061   126.997     0.010     0.000 .00000E+00 0.000E+00 0.000E+00 0.000E+00 0.000E+00 0.000E+00
BIGSUB   5        0    3.17237E+00   302.600     0.000   136.099   102.177    64.634     0.514    80.647     0.026   175.627     0.010     0.021     0.003     0.000     0.009     0.002    94.897     0.002     0.000 .00000E+00 0.000E+00 0.000E+00 0.000E+00 0.000E+00 0.000E+00
BIGSUB   1        0    4.11943E+00   986.500     0.000    98.992    80.025    96.543    29.749   445.316     1.005   853.123     0.090     0.342     0.042     0.009     0.014     0.032   406.594     0.108     0.000 .00000E+00 0.000E+00 0.000E+00 0.000E+00 0.000E+00 0.000E+00
BIGSUB   2        0    4.10671E+00   986.500     0.000    99.014    81.697    87.276    10.265   491.190     0.000   866.756     0.118     0.394     0.048     0.009     0.027     0.037   375.508     0.095     0.000 .00000E+00 0.000E+00 0.000E+00 0.000E+00 0.000E+00 0.000E+00
BIGSUB   3        0    4.62454E+00   986.500     0.000    98.960    82.332    96.360     9.465   458.842     0.220   861.304     1.194     0.761     0.093     0.008     0.011     0.071   402.188     0.090     0.000 .00000E+00 0.000E+00 0.000E+00 0.000E+00 0.000E+00 0.000E+00
BIGSUB   4        0    4.44478E+00   986.500     0.000    99.007    81.320    88.224     9.753   488.736     0.067   866.580     5.344     0.903     0.111     0.010     0.022     0.089   377.721     0.116     0.000 .00000E+00 0.000E+00 0.000E+00 0.000E+00 0.000E+00 0.000E+00
BIGSUB   5        0    4.17237E+00   986.500     0.000    99.024    85.764    70.972     9.315   590.352     0.089   873.986     0.084     0.287     0.035     0.007     0.054     0.027   283.485     0.072     0.000 .00000E+00 0.000E+00 0.000E+00 0.000E+00 0.000E+00 0.000E+00
BIGSUB   1        0    5.11943E+00    55.900     0.000   132.583    31.172    69.254     3.021    14.282    10.387    75.883     0.002     0.019     0.002     0.001     0.000     0.002    50.848     0.027     0.000 .00000E+00 0.000E+00 0.000E+00 0.000E+00 0.000E+00 0.000E+00
BIGSUB   2        0    5.10671E+00    55.900     0.000   132.658    30.671    60.969     1.442    18.221     0.000    64.910     0.003     0.022     0.003     0.002     0.001     0.002    46.570     0.025     0.000 .00000E+00 0.000E+00 0.000E+00 0.000E+00 0.000E+00 0.000E+00
BIGSUB   3        0    5.62454E+00    55.900     0.000   132.475    36.972    63.333     1.386    15.834     0.358    66.502     0.045     0.037     0.005     0.001     0.000     0.003    50.199     0.023     0.000 .00000E+00 0.000E+00 0.000E+00 0.000E+00 0.000E+00 0.000E+00
BIGSUB   4        0    5.44478E+00    55.900     0.000   132.634    30.887    61.663     1.363    18.117     0.105    65.212     0.216     0.027     0.003     0.002     0.001     0.002    46.876     0.027     0.000 .00000E+00 0.000E+00 0.000E+00 0.000E+00 0.000E+00 0.000E+00
BIGSUB   5        0    5.17237E+00    55.900     0.000   132.692    29.886    46.320     1.289    26.688     0.223    62.186     0.002     0.016     0.002     0.001     0.003     0.001    35.161     0.019     0.000 .00000E+00 0.000E+00 0.000E+00 0.000E+00 0.000E+00 0.000E+00
BIGSUB   1        0    6.11943E+00     2.600     0.000   133.461    11.328    60.093     0.000     0.000     5.864     6.655     0.000     0.000     0.000     0.000     0.000     0.000     0.416     0.008     0.000 .00000E+00 0.000E+00 0.000E+00 0.000E+00 0.000E+00 0.000E+00
BIGSUB   2        0    6.10671E+00     2.600     0.000   133.552    10.231    52.898     0.000     0.000     0.000     0.551     0.000     0.000     0.000     0.000     0.000     0.000     0.422     0.009     0.000 .00000E+00 0.000E+00 0.000E+00 0.000E+00 0.000E+00 0.000E+00
BIGSUB   3        0    6.62454E+00     2.600     0.000   133.330    12.213    53.221     0.000     0.000     0.224     0.823     0.000     0.000     0.000     0.000     0.000     0.000     0.479     0.009     0.000 .00000E+00 0.000E+00 0.000E+00 0.000E+00 0.000E+00 0.000E+00
BIGSUB   4        0    6.44478E+00     2.600     0.000   133.523    10.344    53.466     0.000     0.000     0.065     0.623     0.000     0.000     0.000     0.000     0.000     0.000     0.435     0.009     0.000 .00000E+00 0.000E+00 0.000E+00 0.000E+00 0.000E+00 0.000E+00
BIGSUB   5        0    6.17237E+00     2.600     0.000   133.594     8.379    40.207     0.000     0.000     0.143     0.584     0.000     0.000     0.000     0.000     0.000     0.000     0.320     0.007     0.000 .00000E+00 0.000E+00 0.000E+00 0.000E+00 0.000E+00 0.000E+00
BIGSUB   1        0    7.11943E+00   132.200     0.000   126.386    39.285    72.343     0.053    28.192     0.163    81.120     0.039     0.168     0.021     0.010     0.001     0.016    52.436     0.145     0.000 .00000E+00 0.000E+00 0.000E+00 0.000E+00 0.000E+00 0.000E+00
BIGSUB   2        0    7.10671E+00   132.200     0.000   126.509    40.525    64.307     0.211    30.415     0.000    80.186     0.048     0.181     0.022     0.011     0.002     0.017    49.655     0.127     0.000 .00000E+00 0.000E+00 0.000E+00 0.000E+00 0.000E+00 0.000E+00
BIGSUB   3        0    7.62454E+00   132.200     0.000   126.209    37.228    64.221     0.045    27.603     0.104    84.157     0.166     0.246     0.030     0.012     0.001     0.023    56.342     0.133     0.000 .00000E+00 0.000E+00 0.000E+00 0.000E+00 0.000E+00 0.000E+00
BIGSUB   4        0    7.44478E+00   132.200     0.000   126.470    39.986    64.210     0.176    31.186     0.032    81.452     0.556     0.219     0.027     0.011     0.002     0.021    50.124     0.126     0.000 .00000E+00 0.000E+00 0.000E+00 0.000E+00 0.000E+00 0.000E+00
BIGSUB   5        0    7.17237E+00   132.200     0.000   126.567    44.129    54.552     0.583    35.612     0.016    73.278     0.034     0.132     0.016     0.008     0.004     0.012    37.543     0.096     0.000 .00000E+00 0.000E+00 0.000E+00 0.000E+00 0.000E+00 0.000E+00
BIGSUB   1        0    8.11943E+00   160.100     0.000   189.415    78.372    72.435     0.086    10.926     0.050    81.184     0.034     0.086     0.011     0.003     0.001     0.008    69.950     0.117     0.000 .00000E+00 0.000E+00 0.000E+00 0.000E+00 0.000E+00 0.000E+00
BIGSUB   2        0    8.10671E+00   160.100     0.000   189.664    79.654    60.135     0.090    17.355     0.000    83.937     0.038     0.082     0.010     0.003     0.002     0.008    66.490     0.087     0.000 .00000E+00 0.000E+00 0.000E+00 0.000E+00 0.000E+00 0.000E+00
BIGSUB   3        0    8.62454E+00   160.100     0.000   189.060    74.432    63.785     0.073    10.387     0.043    85.381     0.136     0.113     0.014     0.004     0.000     0.011    74.867     0.099     0.000 .00000E+00 0.000E+00 0.000E+00 0.000E+00 0.000E+00 0.000E+00
BIGSUB   4        0    8.44478E+00   160.100     0.000   189.585    78.372    60.583     0.092    17.126     0.013    84.661     0.466     0.099     0.012     0.004     0.001     0.009    67.434     0.087     0.000 .00000E+00 0.000E+00 0.000E+00 0.000E+00 0.000E+00 0.000E+00
BIGSUB   5        0    8.17237E+00   160.100     0.000   189.779    85.767    46.563     0.259    31.250     0.002    81.636     0.027     0.060     0.007     0.003     0.004     0.006    50.295     0.067     0.000 .00000E+00 0.000E+00 0.000E+00 0.000E+00 0.000E+00 0.000E+00
BIGSUB   1        0    9.11943E+00   167.200     0.000   114.374    73.295    78.579     0.114    11.551     0.083    88.347     0.082     0.234     0.029     0.001     0.001     0.022    76.521     0.122     0.000 .00000E+00 0.000E+00 0.000E+00 0.000E+00 0.000E+00 0.000E+00
BIGSUB   2        0    9.10671E+00   167.200     0.000   114.175    73.715    62.746     0.056    17.794     0.000    91.322     0.092     0.225     0.028     0.001     0.002     0.021    73.459     0.113     0.000 .00000E+00 0.000E+00 0.000E+00 0.000E+00 0.000E+00 0.000E+00
BIGSUB   3        0    9.62454E+00   167.200     0.000   114.655    70.871    67.228     0.098    11.055     0.071    93.417     0.232     0.310     0.038     0.001     0.000     0.029    82.227     0.121     0.000 .00000E+00 0.000E+00 0.000E+00 0.000E+00 0.000E+00 0.000E+00
BIGSUB   4        0    9.44478E+00   167.200     0.000   114.238    72.885    63.278     0.073    17.493     0.022    92.084     0.594     0.271     0.033     0.001     0.001     0.026    74.502     0.112     0.000 .00000E+00 0.000E+00 0.000E+00 0.000E+00 0.000E+00 0.000E+00
BIGSUB   5        0    9.17237E+00   167.200     0.000   114.084    78.081    48.782     0.177    31.490     0.011    87.132     0.066     0.165     0.020     0.001     0.004     0.016    55.561     0.085     0.000 .00000E+00 0.000E+00 0.000E+00 0.000E+00 0.000E+00 0.000E+00
BIGSUB   1        0   10.11943E+00   159.000     0.000   159.738    82.579    80.268     0.094     3.921     0.083    70.267     0.045     0.102     0.013     0.001     0.000     0.010    66.114     0.084     0.000 .00000E+00 0.000E+00 0.000E+00 0.000E+00 0.000E+00 0.000E+00
BIGSUB   2        0   10.10671E+00   159.000     0.000   159.566    80.782    64.652     0.052     8.383     0.000    72.269     0.032     0.064     0.008     0.001     0.001     0.006    63.831     0.063     0.000 .00000E+00 0.000E+00 0.000E+00 0.000E+00 0.000E+00 0.000E+00
BIGSUB   3        0   10.62454E+00   159.000     0.000   159.981    77.580    68.867     0.080     3.253     0.071    75.294     0.117     0.095     0.012     0.002     0.000     0.009    71.920     0.073     0.000 .00000E+00 0.000E+00 0.000E+00 0.000E+00 0.000E+00 0.000E+00
BIGSUB   4        0   10.44478E+00   159.000     0.000   159.620    79.698    65.088     0.064     8.385     0.022    73.399     0.367     0.074     0.009     0.002     0.001     0.007    64.939     0.064     0.000 .00000E+00 0.000E+00 0.000E+00 0.000E+00 0.000E+00 0.000E+00
BIGSUB   5        0   10.17237E+00   159.000     0.000   159.486    85.466    51.739     0.156    18.908     0.013    67.277     0.024     0.049     0.006     0.001     0.003     0.005    48.299     0.048     0.000 .00000E+00 0.000E+00 0.000E+00 0.000E+00 0.000E+00 0.000E+00
BIGSUB   1        0   11.11943E+00   334.500     0.000   145.033    84.745    83.238     0.741   109.215     0.114   251.105     2.062     5.389     0.659     0.005     0.004     0.510   141.667     0.281     0.000 .00000E+00 0.000E+00 0.000E+00 0.000E+00 0.000E+00 0.000E+00
BIGSUB   2        0   11.10671E+00   334.500     0.000   144.943    84.408    63.785     0.108   114.067     0.000   255.171     2.333     4.935     0.604     0.005     0.008     0.469   141.064     0.283     0.000 .00000E+00 0.000E+00 0.000E+00 0.000E+00 0.000E+00 0.000E+00
BIGSUB   3        0   11.62454E+00   334.500     0.000   145.161    80.977    69.218     0.208   101.892     0.097   257.892     4.025     6.279     0.769     0.006     0.004     0.596   155.866     0.309     0.000 .00000E+00 0.000E+00 0.000E+00 0.000E+00 0.000E+00 0.000E+00
BIGSUB   4        0   11.44478E+00   334.500     0.000   144.971    83.314    64.425     0.145   113.736     0.031   256.117     4.654     5.479     0.671     0.006     0.006     0.522   142.311     0.283     0.000 .00000E+00 0.000E+00 0.000E+00 0.000E+00 0.000E+00 0.000E+00
BIGSUB   5        0   11.17237E+00   334.500     0.000   144.901    89.457    48.671     0.387   144.647     0.019   251.178     1.669     3.660     0.448     0.004     0.015     0.348   106.467     0.212     0.000 .00000E+00 0.000E+00 0.000E+00 0.000E+00 0.000E+00 0.000E+00
BIGSUB   1        0   12.11943E+00   398.800     0.000   134.157    89.768    90.341     9.841    90.305     0.161   289.253     4.109     7.379     0.902     0.004     0.003     0.700   198.692     0.376     0.000 .00000E+00 0.000E+00 0.000E+00 0.000E+00 0.000E+00 0.000E+00
BIGSUB   2        0   12.10671E+00   398.800     0.000   134.022    90.448    80.327     0.765   103.953     0.000   288.277     4.902     6.686     0.818     0.003     0.007     0.637   184.292     0.270     0.000 .00000E+00 0.000E+00 0.000E+00 0.000E+00 0.000E+00 0.000E+00
BIGSUB   3        0   12.62454E+00   398.800     0.000   134.348    86.810    87.338     0.831    86.153     0.138   290.154     8.620     8.586     1.052     0.004     0.002     0.816   203.832     0.301     0.000 .00000E+00 0.000E+00 0.000E+00 0.000E+00 0.000E+00 0.000E+00
BIGSUB   4        0   12.44478E+00   398.800     0.000   134.065    89.376    81.104     0.786   103.091     0.043   289.208     8.610     7.162     0.876     0.005     0.006     0.684   186.043     0.277     0.000 .00000E+00 0.000E+00 0.000E+00 0.000E+00 0.000E+00 0.000E+00
BIGSUB   5        0   12.17237E+00   398.800     0.000   133.960    95.975    62.753     1.082   146.286     0.031   285.560     3.517     5.032     0.616     0.003     0.016     0.479   139.205     0.205     0.000 .00000E+00 0.000E+00 0.000E+00 0.000E+00 0.000E+00 0.000E+00
BIGSUB   1        0 2016.11943E+00  3003.700     0.000  1726.032   849.494    90.341    45.272   777.197    18.552  2136.757     6.825    14.397     1.761     0.035     0.026     1.365  1338.270     1.319     0.000 .00000E+00 0.000E+00 0.000E+00 0.000E+00 0.000E+00 0.000E+00
BIGSUB   2        0 2016.10671E+00  3003.700     0.000  1725.882   846.346    80.327    13.772   885.467     0.000  2151.760     8.007    13.255     1.622     0.035     0.056     1.262  1265.407     1.113     0.000 .00000E+00 0.000E+00 0.000E+00 0.000E+00 0.000E+00 0.000E+00
BIGSUB   3        0 2016.62454E+00  3003.700     0.000  1726.242   829.322    87.338    13.017   782.006     1.903  2173.372    15.773    17.760     2.176     0.040     0.021     1.689  1388.638     1.217     0.000 .00000E+00 0.000E+00 0.000E+00 0.000E+00 0.000E+00 0.000E+00
BIGSUB   4        0 2016.44478E+00  3003.701     0.000  1725.931   837.822    81.104    13.249   881.742     0.574  2161.222    23.470    16.169     1.978     0.044     0.047     1.557  1278.055     1.194     0.000 .00000E+00 0.000E+00 0.000E+00 0.000E+00 0.000E+00 0.000E+00
BIGSUB   5        0 2016.17237E+00  3003.700     0.000  1725.812   880.912    62.753    14.466  1160.679     0.765  2118.416     5.739     9.899     1.211     0.029     0.118     0.942   956.092     0.842     0.000 .00000E+00 0.000E+00 0.000E+00 0.000E+00 0.000E+00 0.000E+00
BIGSUB   1        0  4.0.11943E+00  3445.525     0.000  1685.452   939.716    90.341    50.196   941.741    16.415  2473.057    20.608    41.315     5.053     0.034     0.035     3.978  1512.327     1.700     0.001 .00000E+00 0.000E+00 0.000E+00 0.000E+00 0.000E+00 0.000E+00
BIGSUB   2        0  4.0.10671E+00  3445.525     0.000  1685.606   939.906    80.327    13.493  1065.865     0.000  2491.062    25.617    37.219     4.553     0.034     0.069     3.612  1424.494     1.425     0.000 .00000E+00 0.000E+00 0.000E+00 0.000E+00 0.000E+00 0.000E+00
BIGSUB   3        0  4.0.62454E+00  3445.525     0.000  1685.230   918.692    87.338    12.605   952.899     2.002  2515.704    44.769    44.518     5.478     0.046     0.031     4.404  1560.149     1.551     0.000 .00000E+00 0.000E+00 0.000E+00 0.000E+00 0.000E+00 0.000E+00
BIGSUB   4        0  4.0.44478E+00  3445.526     0.000  1685.558   930.041    81.104    13.027  1062.584     0.604  2502.013    50.781    39.097     4.784     0.047     0.058     3.826  1438.145     1.503     0.000 .00000E+00 0.000E+00 0.000E+00 0.000E+00 0.000E+00 0.000E+00
BIGSUB   5        0  4.0.17237E+00  3445.525     0.000  1685.676   980.381    62.753    14.706  1372.612     0.776  2450.339    18.298    28.129     3.441     0.029     0.141     2.726  1076.188     1.077     0.000 .00000E+00 0.000E+00 0.000E+00 0.000E+00 0.000E+00 0.000E+00
