1
    SWAT Dec 23 2016    VER 2016/Rev 664                                                                 0/ 0/   0      0: 0: 0

    General Input/Output section (file.cio):                                        
    2/7/2020 21:38:35 QSWAT Workflow v1.5.2                                         
                                                                                    


       RCH      GIS   MON     AREAkm2  FLOW_INcms FLOW_OUTcms     EVAPcms    TLOSScms  SED_INtons SED_OUTtons SEDCONCmg/L   ORGN_INkg  ORGN_OUTkg   ORGP_INkg  ORGP_OUTkg    NO3_INkg   NO3_OUTkg    NH4_INkg   NH4_OUTkg    NO2_INkg   NO2_OUTkg   MINP_INkg  MINP_OUTkg   CHLA_INkg  CHLA_OUTkg   CBOD_INkg  CBOD_OUTkg  DISOX_INkg DISOX_OUTkg SOLPST_INmgSOLPST_OUTmg SORPST_INmgSORPST_OUTmg  REACTPSTmg    VOLPSTmg  SETTLPSTmgRESUSP_PSTmgDIFFUSEPSTmgREACBEDPSTmg   BURYPSTmg   BED_PSTmg BACTP_OUTctBACTLP_OUTct  CMETAL#1kg  CMETAL#2kg  CMETAL#3kg     TOT Nkg     TOT Pkg NO3ConcMg/l    WTMPdegc
REACH    1        0     1  0.1194E+00  0.2036E-01  0.2036E-01  0.2387E-05  0.0000E+00  0.1063E+03  0.1063E+03  0.8168E+03  0.2797E+03  0.2796E+03  0.6149E+02  0.6146E+02  0.5295E+01  0.5294E+01  0.0000E+00  0.4734E-01  0.0000E+00  0.0000E+00  0.1137E+00  0.1308E+00  0.3029E+01  0.2993E+01  0.1573E+05  0.1570E+05  0.3258E+03  0.1607E+03  0.0000E+00  0.0000E+00  0.0000E+00  0.0000E+00  0.0000E+00  0.0000E+00  0.0000E+00  0.0000E+00  0.0000E+00  0.0000E+00  0.0000E+00  0.0000E+00  0.0000E+00  0.0000E+00  0.0000E+00  0.0000E+00  0.0000E+00  0.2850E+03  0.6160E+02  0.0000E+00  0.0000E+00
REACH    2        0     1  0.1067E+00  0.1832E-01  0.1832E-01  0.5868E-06  0.0000E+00  0.1288E+03  0.1288E+03  0.1091E+04  0.2549E+03  0.2549E+03  0.5616E+02  0.5615E+02  0.3944E+01  0.3944E+01  0.0000E+00  0.1565E-01  0.0000E+00  0.0000E+00  0.1736E+00  0.1793E+00  0.2676E+01  0.2666E+01  0.1677E+05  0.1676E+05  0.3093E+03  0.1422E+03  0.0000E+00  0.0000E+00  0.0000E+00  0.0000E+00  0.0000E+00  0.0000E+00  0.0000E+00  0.0000E+00  0.0000E+00  0.0000E+00  0.0000E+00  0.0000E+00  0.0000E+00  0.0000E+00  0.0000E+00  0.0000E+00  0.0000E+00  0.2589E+03  0.5633E+02  0.0000E+00  0.0000E+00
REACH    3        0     1  0.6245E+00  0.1083E+00  0.1083E+00  0.4229E-04  0.0000E+00  0.1091E+04  0.1091E+04  0.1583E+04  0.1521E+04  0.1519E+04  0.3362E+03  0.3356E+03  0.2615E+02  0.2613E+02  0.0000E+00  0.1413E+01  0.0000E+00  0.0000E+00  0.9861E+00  0.1499E+01  0.1649E+02  0.1579E+02  0.1280E+06  0.1268E+06  0.1696E+04  0.7520E+03  0.0000E+00  0.0000E+00  0.0000E+00  0.0000E+00  0.0000E+00  0.0000E+00  0.0000E+00  0.0000E+00  0.0000E+00  0.0000E+00  0.0000E+00  0.0000E+00  0.0000E+00  0.0000E+00  0.0000E+00  0.0000E+00  0.0000E+00  0.1546E+04  0.3371E+03  0.0000E+00  0.0000E+00
REACH    4        0     1  0.1189E+01  0.2052E+00  0.2052E+00  0.3811E-04  0.0000E+00  0.2019E+04  0.2169E+03  0.2598E+03  0.2996E+04  0.2994E+04  0.6615E+03  0.6608E+03  0.4869E+02  0.4866E+02  0.1461E+01  0.3062E+01  0.0000E+00  0.1684E-02  0.2279E+01  0.2860E+01  0.3244E+02  0.3177E+02  0.2460E+06  0.2447E+06  0.2176E+04  0.1363E+04  0.0000E+00  0.0000E+00  0.0000E+00  0.0000E+00  0.0000E+00  0.0000E+00  0.0000E+00  0.0000E+00  0.0000E+00  0.0000E+00  0.0000E+00  0.0000E+00  0.0000E+00  0.0000E+00  0.0000E+00  0.0000E+00  0.0000E+00  0.3046E+04  0.6636E+03  0.0000E+00  0.0000E+00
REACH    5        0     1  0.1468E+01  0.2528E+00  0.2528E+00  0.4378E-04  0.0000E+00  0.4941E+03  0.8981E+02  0.1134E+03  0.3556E+04  0.3552E+04  0.7846E+03  0.7832E+03  0.5742E+02  0.5737E+02  0.3078E+01  0.6296E+01  0.1684E-02  0.4601E-02  0.3554E+01  0.4728E+01  0.3768E+02  0.3681E+02  0.2811E+06  0.2787E+06  0.2037E+04  0.1688E+04  0.0000E+00  0.0000E+00  0.0000E+00  0.0000E+00  0.0000E+00  0.0000E+00  0.0000E+00  0.0000E+00  0.0000E+00  0.0000E+00  0.0000E+00  0.0000E+00  0.0000E+00  0.0000E+00  0.0000E+00  0.0000E+00  0.0000E+00  0.3616E+04  0.7879E+03  0.0000E+00  0.0000E+00
REACH    1        0     2  0.1194E+00  0.7051E-02  0.7049E-02  0.1262E-05  0.0000E+00  0.5280E+02  0.5280E+02  0.3431E+03  0.7734E+02  0.7731E+02  0.1701E+02  0.1700E+02  0.1429E+01  0.1429E+01  0.0000E+00  0.1679E-01  0.0000E+00  0.0000E+00  0.1947E-01  0.2547E-01  0.1101E+01  0.1086E+01  0.8142E+04  0.8125E+04  0.9741E+02  0.6263E+02  0.0000E+00  0.0000E+00  0.0000E+00  0.0000E+00  0.0000E+00  0.0000E+00  0.0000E+00  0.0000E+00  0.0000E+00  0.0000E+00  0.0000E+00  0.0000E+00  0.0000E+00  0.0000E+00  0.0000E+00  0.0000E+00  0.0000E+00  0.7876E+02  0.1703E+02  0.0000E+00  0.0000E+00
REACH    2        0     2  0.1067E+00  0.5989E-02  0.5988E-02  0.2607E-06  0.0000E+00  0.6501E+02  0.6501E+02  0.4579E+03  0.6621E+02  0.6621E+02  0.1460E+02  0.1460E+02  0.1135E+01  0.1135E+01  0.0000E+00  0.3201E-02  0.0000E+00  0.0000E+00  0.3762E-01  0.3876E-01  0.9266E+00  0.9237E+00  0.8903E+04  0.8899E+04  0.8535E+02  0.4815E+02  0.0000E+00  0.0000E+00  0.0000E+00  0.0000E+00  0.0000E+00  0.0000E+00  0.0000E+00  0.0000E+00  0.0000E+00  0.0000E+00  0.0000E+00  0.0000E+00  0.0000E+00  0.0000E+00  0.0000E+00  0.0000E+00  0.0000E+00  0.6735E+02  0.1464E+02  0.0000E+00  0.0000E+00
REACH    3        0     2  0.6245E+00  0.3542E-01  0.3539E-01  0.3335E-04  0.0000E+00  0.5475E+03  0.5475E+03  0.6696E+03  0.3515E+03  0.3512E+03  0.7797E+02  0.7786E+02  0.7334E+01  0.7326E+01  0.0000E+00  0.2698E+00  0.0000E+00  0.0000E+00  0.1799E+00  0.2752E+00  0.4983E+01  0.4829E+01  0.6746E+05  0.6700E+05  0.4671E+03  0.2624E+03  0.0000E+00  0.0000E+00  0.0000E+00  0.0000E+00  0.0000E+00  0.0000E+00  0.0000E+00  0.0000E+00  0.0000E+00  0.0000E+00  0.0000E+00  0.0000E+00  0.0000E+00  0.0000E+00  0.0000E+00  0.0000E+00  0.0000E+00  0.3588E+03  0.7813E+02  0.0000E+00  0.0000E+00
REACH    4        0     2  0.1189E+01  0.6745E-01  0.6741E-01  0.3577E-04  0.0000E+00  0.1000E+04  0.5759E+02  0.1058E+03  0.7054E+03  0.7050E+03  0.1561E+03  0.1559E+03  0.1379E+02  0.1378E+02  0.2866E+00  0.6585E+00  0.0000E+00  0.8804E-03  0.4343E+00  0.5663E+00  0.9838E+01  0.9666E+01  0.1273E+06  0.1267E+06  0.6733E+03  0.4531E+03  0.0000E+00  0.0000E+00  0.0000E+00  0.0000E+00  0.0000E+00  0.0000E+00  0.0000E+00  0.0000E+00  0.0000E+00  0.0000E+00  0.0000E+00  0.0000E+00  0.0000E+00  0.0000E+00  0.0000E+00  0.0000E+00  0.0000E+00  0.7194E+03  0.1565E+03  0.0000E+00  0.0000E+00
REACH    5        0     2  0.1468E+01  0.8295E-01  0.8293E-01  0.2397E-04  0.0000E+00  0.1975E+03  0.2730E+02  0.5387E+02  0.8520E+03  0.8511E+03  0.1883E+03  0.1880E+03  0.1630E+02  0.1628E+02  0.6617E+00  0.1359E+01  0.8804E-03  0.2129E-02  0.7323E+00  0.9853E+00  0.1173E+02  0.1149E+02  0.1460E+06  0.1448E+06  0.6488E+03  0.5644E+03  0.0000E+00  0.0000E+00  0.0000E+00  0.0000E+00  0.0000E+00  0.0000E+00  0.0000E+00  0.0000E+00  0.0000E+00  0.0000E+00  0.0000E+00  0.0000E+00  0.0000E+00  0.0000E+00  0.0000E+00  0.0000E+00  0.0000E+00  0.8687E+03  0.1890E+03  0.0000E+00  0.0000E+00
REACH    1        0     3  0.1194E+00  0.1882E-02  0.1881E-02  0.9404E-06  0.0000E+00  0.7303E-07  0.7303E-07  0.5155E-04  0.4069E-06  0.1163E-07  0.1118E-05  0.2129E-06  0.9521E-02  0.9513E-02  0.0000E+00  0.4215E-03  0.0000E+00  0.0000E+00  0.7126E-06  0.3927E-07  0.1292E-12  0.0000E+00  0.0000E+00  0.0000E+00  0.4160E+02  0.4047E+02  0.0000E+00  0.0000E+00  0.0000E+00  0.0000E+00  0.0000E+00  0.0000E+00  0.0000E+00  0.0000E+00  0.0000E+00  0.0000E+00  0.0000E+00  0.0000E+00  0.0000E+00  0.0000E+00  0.0000E+00  0.0000E+00  0.0000E+00  0.9935E-02  0.2522E-06  0.0000E+00  0.0000E+00
REACH    2        0     3  0.1067E+00  0.1556E-02  0.1556E-02  0.2029E-06  0.0000E+00  0.1239E-06  0.1239E-06  0.3247E-02  0.3308E-06  0.1215E-06  0.9923E-06  0.4235E-06  0.2425E-02  0.2425E-02  0.0000E+00  0.8679E-04  0.0000E+00  0.0000E+00  0.6019E-02  0.6022E-02  0.1032E-05  0.1019E-05  0.0000E+00  0.0000E+00  0.3440E+02  0.3348E+02  0.0000E+00  0.0000E+00  0.0000E+00  0.0000E+00  0.0000E+00  0.0000E+00  0.0000E+00  0.0000E+00  0.0000E+00  0.0000E+00  0.0000E+00  0.0000E+00  0.0000E+00  0.0000E+00  0.0000E+00  0.0000E+00  0.0000E+00  0.2512E-02  0.6023E-02  0.0000E+00  0.0000E+00
REACH    3        0     3  0.6245E+00  0.9481E-02  0.9450E-02  0.3064E-04  0.0000E+00  0.2818E+01  0.2818E+01  0.2782E+02  0.1290E+00  0.1286E+00  0.3028E-01  0.3014E-01  0.1830E+00  0.1818E+00  0.0000E+00  0.1376E-01  0.0000E+00  0.0000E+00  0.2653E-03  0.4695E-03  0.1870E-02  0.1420E-02  0.3268E+03  0.3204E+03  0.2089E+03  0.9077E+02  0.0000E+00  0.0000E+00  0.0000E+00  0.0000E+00  0.0000E+00  0.0000E+00  0.0000E+00  0.0000E+00  0.0000E+00  0.0000E+00  0.0000E+00  0.0000E+00  0.0000E+00  0.0000E+00  0.0000E+00  0.0000E+00  0.0000E+00  0.3241E+00  0.3061E-01  0.0000E+00  0.0000E+00
REACH    4        0     3  0.1189E+01  0.1794E-01  0.1791E-01  0.3291E-04  0.0000E+00  0.1366E+02  0.8628E+01  0.7910E+02  0.7213E+00  0.7200E+00  0.1681E+00  0.1677E+00  0.7176E+00  0.7152E+00  0.1418E-01  0.3026E-01  0.0000E+00  0.5822E-03  0.2072E-01  0.2157E-01  0.1045E-01  0.9047E-02  0.1604E+04  0.1586E+04  0.2746E+03  0.1561E+03  0.0000E+00  0.0000E+00  0.0000E+00  0.0000E+00  0.0000E+00  0.0000E+00  0.0000E+00  0.0000E+00  0.0000E+00  0.0000E+00  0.0000E+00  0.0000E+00  0.0000E+00  0.0000E+00  0.0000E+00  0.0000E+00  0.0000E+00  0.1466E+01  0.1893E+00  0.0000E+00  0.0000E+00
REACH    5        0     3  0.1468E+01  0.2182E-01  0.2180E-01  0.1937E-04  0.0000E+00  0.8628E+01  0.5609E+01  0.4478E+02  0.7200E+00  0.7189E+00  0.1677E+00  0.1673E+00  0.7210E+00  0.7199E+00  0.3035E-01  0.3949E-01  0.5822E-03  0.1283E-02  0.5443E-01  0.5511E-01  0.9052E-02  0.8442E-02  0.1586E+04  0.1570E+04  0.2416E+03  0.1884E+03  0.0000E+00  0.0000E+00  0.0000E+00  0.0000E+00  0.0000E+00  0.0000E+00  0.0000E+00  0.0000E+00  0.0000E+00  0.0000E+00  0.0000E+00  0.0000E+00  0.0000E+00  0.0000E+00  0.0000E+00  0.0000E+00  0.0000E+00  0.1480E+01  0.2224E+00  0.0000E+00  0.0000E+00
REACH    1        0     4  0.1194E+00  0.6169E-02  0.6168E-02  0.1453E-05  0.0000E+00  0.1720E+00  0.1720E+00  0.1067E+01  0.3315E+00  0.3314E+00  0.7185E-01  0.7182E-01  0.3493E+00  0.3493E+00  0.0000E+00  0.5197E-03  0.0000E+00  0.0000E+00  0.1100E-01  0.1103E-01  0.1735E-02  0.1713E-02  0.2352E+02  0.2348E+02  0.1196E+03  0.1003E+03  0.0000E+00  0.0000E+00  0.0000E+00  0.0000E+00  0.0000E+00  0.0000E+00  0.0000E+00  0.0000E+00  0.0000E+00  0.0000E+00  0.0000E+00  0.0000E+00  0.0000E+00  0.0000E+00  0.0000E+00  0.0000E+00  0.0000E+00  0.6812E+00  0.8285E-01  0.0000E+00  0.0000E+00
REACH    2        0     4  0.1067E+00  0.5627E-02  0.5627E-02  0.3115E-06  0.0000E+00  0.1645E+00  0.1645E+00  0.1114E+01  0.2373E+00  0.2373E+00  0.5143E-01  0.5142E-01  0.2594E+00  0.2594E+00  0.0000E+00  0.1168E-03  0.0000E+00  0.0000E+00  0.2893E-01  0.2894E-01  0.9604E-03  0.9565E-03  0.1956E+02  0.1955E+02  0.1107E+03  0.9257E+02  0.0000E+00  0.0000E+00  0.0000E+00  0.0000E+00  0.0000E+00  0.0000E+00  0.0000E+00  0.0000E+00  0.0000E+00  0.0000E+00  0.0000E+00  0.0000E+00  0.0000E+00  0.0000E+00  0.0000E+00  0.0000E+00  0.0000E+00  0.4968E+00  0.8037E-01  0.0000E+00  0.0000E+00
REACH    3        0     4  0.6245E+00  0.3406E-01  0.3402E-01  0.3204E-04  0.0000E+00  0.2187E+02  0.2187E+02  0.3665E+02  0.4040E+01  0.4035E+01  0.9361E+00  0.9345E+00  0.1381E+01  0.1380E+01  0.0000E+00  0.1687E-01  0.0000E+00  0.0000E+00  0.8403E-01  0.8556E-01  0.4314E-01  0.4142E-01  0.3620E+04  0.3589E+04  0.6151E+03  0.1615E+03  0.0000E+00  0.0000E+00  0.0000E+00  0.0000E+00  0.0000E+00  0.0000E+00  0.0000E+00  0.0000E+00  0.0000E+00  0.0000E+00  0.0000E+00  0.0000E+00  0.0000E+00  0.0000E+00  0.0000E+00  0.0000E+00  0.0000E+00  0.5432E+01  0.1020E+01  0.0000E+00  0.0000E+00
REACH    4        0     4  0.1189E+01  0.6404E-01  0.6401E-01  0.3422E-04  0.0000E+00  0.9959E+02  0.6375E+02  0.1010E+03  0.8237E+01  0.8232E+01  0.1896E+01  0.1894E+01  0.2874E+01  0.2873E+01  0.1739E-01  0.3564E-01  0.0000E+00  0.8675E-03  0.1945E+00  0.1968E+00  0.1384E+00  0.1351E+00  0.1687E+05  0.1678E+05  0.7056E+03  0.2880E+03  0.0000E+00  0.0000E+00  0.0000E+00  0.0000E+00  0.0000E+00  0.0000E+00  0.0000E+00  0.0000E+00  0.0000E+00  0.0000E+00  0.0000E+00  0.0000E+00  0.0000E+00  0.0000E+00  0.0000E+00  0.0000E+00  0.0000E+00  0.1114E+02  0.2091E+01  0.0000E+00  0.0000E+00
REACH    5        0     4  0.1468E+01  0.7827E-01  0.7824E-01  0.2725E-04  0.0000E+00  0.6410E+02  0.2559E+02  0.5028E+02  0.8758E+01  0.8748E+01  0.2008E+01  0.2004E+01  0.3452E+01  0.3452E+01  0.3575E-01  0.5232E-01  0.8675E-03  0.1440E-02  0.3350E+00  0.3386E+00  0.1374E+00  0.1340E+00  0.1682E+05  0.1667E+05  0.5540E+03  0.3477E+03  0.0000E+00  0.0000E+00  0.0000E+00  0.0000E+00  0.0000E+00  0.0000E+00  0.0000E+00  0.0000E+00  0.0000E+00  0.0000E+00  0.0000E+00  0.0000E+00  0.0000E+00  0.0000E+00  0.0000E+00  0.0000E+00  0.0000E+00  0.1225E+02  0.2343E+01  0.0000E+00  0.0000E+00
REACH    1        0     5  0.1194E+00  0.3379E-02  0.3378E-02  0.1105E-05  0.0000E+00  0.1259E-01  0.1259E-01  0.2053E+00  0.2429E-01  0.2428E-01  0.5266E-02  0.5264E-02  0.6368E+00  0.6366E+00  0.0000E+00  0.4327E-03  0.0000E+00  0.0000E+00  0.9802E-03  0.1007E-02  0.1785E-04  0.1748E-04  0.6072E+00  0.6065E+00  0.7466E+02  0.7215E+02  0.0000E+00  0.0000E+00  0.0000E+00  0.0000E+00  0.0000E+00  0.0000E+00  0.0000E+00  0.0000E+00  0.0000E+00  0.0000E+00  0.0000E+00  0.0000E+00  0.0000E+00  0.0000E+00  0.0000E+00  0.0000E+00  0.0000E+00  0.6613E+00  0.6270E-02  0.0000E+00  0.0000E+00
REACH    2        0     5  0.1067E+00  0.3169E-02  0.3169E-02  0.2721E-06  0.0000E+00  0.8614E-02  0.8614E-02  0.1401E+00  0.1246E-01  0.1246E-01  0.2701E-02  0.2700E-02  0.5004E+00  0.5003E+00  0.0000E+00  0.9252E-04  0.0000E+00  0.0000E+00  0.1512E-01  0.1513E-01  0.6475E-04  0.6359E-04  0.2706E+00  0.2705E+00  0.7025E+02  0.6816E+02  0.0000E+00  0.0000E+00  0.0000E+00  0.0000E+00  0.0000E+00  0.0000E+00  0.0000E+00  0.0000E+00  0.0000E+00  0.0000E+00  0.0000E+00  0.0000E+00  0.0000E+00  0.0000E+00  0.0000E+00  0.0000E+00  0.0000E+00  0.5129E+00  0.1783E-01  0.0000E+00  0.0000E+00
REACH    3        0     5  0.6245E+00  0.1831E-01  0.1828E-01  0.3592E-04  0.0000E+00  0.3213E+01  0.3213E+01  0.2140E+02  0.1819E+00  0.1816E+00  0.4204E-01  0.4193E-01  0.2581E+01  0.2576E+01  0.0000E+00  0.1534E-01  0.0000E+00  0.0000E+00  0.4449E-02  0.4684E-02  0.9626E-03  0.8442E-03  0.4359E+03  0.4300E+03  0.4035E+03  0.2533E+03  0.0000E+00  0.0000E+00  0.0000E+00  0.0000E+00  0.0000E+00  0.0000E+00  0.0000E+00  0.0000E+00  0.0000E+00  0.0000E+00  0.0000E+00  0.0000E+00  0.0000E+00  0.0000E+00  0.0000E+00  0.0000E+00  0.0000E+00  0.2773E+01  0.4661E-01  0.0000E+00  0.0000E+00
REACH    4        0     5  0.1189E+01  0.3486E-01  0.3482E-01  0.3872E-04  0.0000E+00  0.1528E+02  0.2005E+02  0.1150E+03  0.4716E+00  0.4710E+00  0.1091E+00  0.1089E+00  0.5326E+01  0.5320E+01  0.1577E-01  0.3247E-01  0.0000E+00  0.1880E-03  0.5484E-01  0.5613E-01  0.5561E-02  0.5147E-02  0.2130E+04  0.2112E+04  0.6142E+03  0.4431E+03  0.0000E+00  0.0000E+00  0.0000E+00  0.0000E+00  0.0000E+00  0.0000E+00  0.0000E+00  0.0000E+00  0.0000E+00  0.0000E+00  0.0000E+00  0.0000E+00  0.0000E+00  0.0000E+00  0.0000E+00  0.0000E+00  0.0000E+00  0.5824E+01  0.1650E+00  0.0000E+00  0.0000E+00
REACH    5        0     5  0.1468E+01  0.4300E-01  0.4298E-01  0.2313E-04  0.0000E+00  0.2007E+02  0.1361E+02  0.6599E+02  0.4993E+00  0.4989E+00  0.1150E+00  0.1148E+00  0.6439E+01  0.6436E+01  0.3256E-01  0.4234E-01  0.1880E-03  0.4301E-03  0.1395E+00  0.1405E+00  0.5499E-02  0.5269E-02  0.2113E+04  0.2097E+04  0.6224E+03  0.5470E+03  0.0000E+00  0.0000E+00  0.0000E+00  0.0000E+00  0.0000E+00  0.0000E+00  0.0000E+00  0.0000E+00  0.0000E+00  0.0000E+00  0.0000E+00  0.0000E+00  0.0000E+00  0.0000E+00  0.0000E+00  0.0000E+00  0.0000E+00  0.6977E+01  0.2553E+00  0.0000E+00  0.0000E+00
REACH    1        0     6  0.1194E+00  0.1014E-01  0.1014E-01  0.1022E-05  0.0000E+00  0.1751E+01  0.1751E+01  0.4629E+01  0.3371E+01  0.3370E+01  0.7313E+00  0.7311E+00  0.2102E+01  0.2101E+01  0.0000E+00  0.8706E-03  0.0000E+00  0.0000E+00  0.5366E-01  0.5384E-01  0.6988E-01  0.6940E-01  0.4757E+03  0.4751E+03  0.1195E+03  0.7493E+02  0.0000E+00  0.0000E+00  0.0000E+00  0.0000E+00  0.0000E+00  0.0000E+00  0.0000E+00  0.0000E+00  0.0000E+00  0.0000E+00  0.0000E+00  0.0000E+00  0.0000E+00  0.0000E+00  0.0000E+00  0.0000E+00  0.0000E+00  0.5473E+01  0.7849E+00  0.0000E+00  0.0000E+00
REACH    2        0     6  0.1067E+00  0.9247E-02  0.9246E-02  0.2232E-06  0.0000E+00  0.1635E+01  0.1635E+01  0.4241E+01  0.2357E+01  0.2357E+01  0.5116E+00  0.5116E+00  0.1851E+01  0.1851E+01  0.0000E+00  0.1817E-03  0.0000E+00  0.0000E+00  0.7799E-01  0.7802E-01  0.4293E-01  0.4285E-01  0.4169E+03  0.4168E+03  0.1283E+03  0.7230E+02  0.0000E+00  0.0000E+00  0.0000E+00  0.0000E+00  0.0000E+00  0.0000E+00  0.0000E+00  0.0000E+00  0.0000E+00  0.0000E+00  0.0000E+00  0.0000E+00  0.0000E+00  0.0000E+00  0.0000E+00  0.0000E+00  0.0000E+00  0.4208E+01  0.5896E+00  0.0000E+00  0.0000E+00
REACH    3        0     6  0.6245E+00  0.5394E-01  0.5391E-01  0.3071E-04  0.0000E+00  0.4241E+02  0.4241E+02  0.4058E+02  0.1823E+02  0.1820E+02  0.4080E+01  0.4072E+01  0.1037E+02  0.1036E+02  0.0000E+00  0.3267E-01  0.0000E+00  0.0000E+00  0.2565E+00  0.2632E+00  0.3449E+00  0.3336E+00  0.8480E+04  0.8399E+04  0.6799E+03  0.2657E+03  0.0000E+00  0.0000E+00  0.0000E+00  0.0000E+00  0.0000E+00  0.0000E+00  0.0000E+00  0.0000E+00  0.0000E+00  0.0000E+00  0.0000E+00  0.0000E+00  0.0000E+00  0.0000E+00  0.0000E+00  0.0000E+00  0.0000E+00  0.2860E+02  0.4336E+01  0.0000E+00  0.0000E+00
REACH    4        0     6  0.1189E+01  0.1027E+00  0.1027E+00  0.3261E-04  0.0000E+00  0.1589E+03  0.8172E+02  0.1364E+03  0.3302E+02  0.3299E+02  0.7314E+01  0.7305E+01  0.2022E+02  0.2022E+02  0.3354E-01  0.7099E-01  0.0000E+00  0.1204E-03  0.5854E+00  0.5943E+00  0.6324E+00  0.6211E+00  0.2947E+05  0.2928E+05  0.8550E+03  0.4509E+03  0.0000E+00  0.0000E+00  0.0000E+00  0.0000E+00  0.0000E+00  0.0000E+00  0.0000E+00  0.0000E+00  0.0000E+00  0.0000E+00  0.0000E+00  0.0000E+00  0.0000E+00  0.0000E+00  0.0000E+00  0.0000E+00  0.0000E+00  0.5328E+02  0.7899E+01  0.0000E+00  0.0000E+00
REACH    5        0     6  0.1468E+01  0.1267E+00  0.1267E+00  0.1954E-04  0.0000E+00  0.8525E+02  0.5702E+02  0.7687E+02  0.3821E+02  0.3819E+02  0.8438E+01  0.8430E+01  0.2433E+02  0.2432E+02  0.7117E-01  0.1019E+00  0.1204E-03  0.2958E-03  0.9162E+00  0.9247E+00  0.7168E+00  0.7085E+00  0.3018E+05  0.3001E+05  0.7559E+03  0.5479E+03  0.0000E+00  0.0000E+00  0.0000E+00  0.0000E+00  0.0000E+00  0.0000E+00  0.0000E+00  0.0000E+00  0.0000E+00  0.0000E+00  0.0000E+00  0.0000E+00  0.0000E+00  0.0000E+00  0.0000E+00  0.0000E+00  0.0000E+00  0.6261E+02  0.9354E+01  0.0000E+00  0.0000E+00
REACH    1        0     7  0.1194E+00  0.7047E-02  0.7046E-02  0.9915E-06  0.0000E+00  0.5559E+00  0.5559E+00  0.8662E+01  0.1262E+01  0.1262E+01  0.2741E+00  0.2740E+00  0.2155E+01  0.2155E+01  0.0000E+00  0.6103E-03  0.0000E+00  0.0000E+00  0.1040E-01  0.1049E-01  0.3305E-02  0.3261E-02  0.5480E+02  0.5472E+02  0.1440E+03  0.1104E+03  0.0000E+00  0.0000E+00  0.0000E+00  0.0000E+00  0.0000E+00  0.0000E+00  0.0000E+00  0.0000E+00  0.0000E+00  0.0000E+00  0.0000E+00  0.0000E+00  0.0000E+00  0.0000E+00  0.0000E+00  0.0000E+00  0.0000E+00  0.3417E+01  0.2845E+00  0.0000E+00  0.0000E+00
REACH    2        0     7  0.1067E+00  0.6547E-02  0.6547E-02  0.3610E-06  0.0000E+00  0.3094E+00  0.3094E+00  0.4795E+01  0.5216E+00  0.5215E+00  0.1135E+00  0.1135E+00  0.1922E+01  0.1922E+01  0.0000E+00  0.1420E-03  0.0000E+00  0.0000E+00  0.3569E-01  0.3571E-01  0.5820E-03  0.5784E-03  0.1890E+02  0.1888E+02  0.1415E+03  0.1216E+03  0.0000E+00  0.0000E+00  0.0000E+00  0.0000E+00  0.0000E+00  0.0000E+00  0.0000E+00  0.0000E+00  0.0000E+00  0.0000E+00  0.0000E+00  0.0000E+00  0.0000E+00  0.0000E+00  0.0000E+00  0.0000E+00  0.0000E+00  0.2444E+01  0.1492E+00  0.0000E+00  0.0000E+00
REACH    3        0     7  0.6245E+00  0.3886E-01  0.3883E-01  0.2939E-04  0.0000E+00  0.1180E+02  0.1180E+02  0.4549E+02  0.4700E+01  0.4693E+01  0.1066E+01  0.1063E+01  0.1272E+02  0.1271E+02  0.0000E+00  0.1948E-01  0.0000E+00  0.0000E+00  0.4658E-01  0.4884E-01  0.7736E-02  0.7161E-02  0.1439E+04  0.1423E+04  0.8226E+03  0.4087E+03  0.0000E+00  0.0000E+00  0.0000E+00  0.0000E+00  0.0000E+00  0.0000E+00  0.0000E+00  0.0000E+00  0.0000E+00  0.0000E+00  0.0000E+00  0.0000E+00  0.0000E+00  0.0000E+00  0.0000E+00  0.0000E+00  0.0000E+00  0.1742E+02  0.1112E+01  0.0000E+00  0.0000E+00
REACH    4        0     7  0.1189E+01  0.7328E-01  0.7325E-01  0.3149E-04  0.0000E+00  0.4793E+02  0.5372E+02  0.1694E+03  0.8213E+01  0.8205E+01  0.1830E+01  0.1828E+01  0.2305E+02  0.2304E+02  0.2009E-01  0.4157E-01  0.0000E+00  0.6585E-04  0.1781E+00  0.1814E+00  0.1352E-01  0.1291E-01  0.6450E+04  0.6400E+04  0.1100E+04  0.7138E+03  0.0000E+00  0.0000E+00  0.0000E+00  0.0000E+00  0.0000E+00  0.0000E+00  0.0000E+00  0.0000E+00  0.0000E+00  0.0000E+00  0.0000E+00  0.0000E+00  0.0000E+00  0.0000E+00  0.0000E+00  0.0000E+00  0.0000E+00  0.3129E+02  0.2009E+01  0.0000E+00  0.0000E+00
REACH    5        0     7  0.1468E+01  0.9016E-01  0.9014E-01  0.2324E-04  0.0000E+00  0.5439E+02  0.3563E+02  0.9380E+02  0.9384E+01  0.9375E+01  0.2084E+01  0.2081E+01  0.2731E+02  0.2730E+02  0.4171E-01  0.5698E-01  0.6585E-04  0.1729E-03  0.3638E+00  0.3669E+00  0.1472E-01  0.1436E-01  0.6443E+04  0.6398E+04  0.1061E+04  0.8772E+03  0.0000E+00  0.0000E+00  0.0000E+00  0.0000E+00  0.0000E+00  0.0000E+00  0.0000E+00  0.0000E+00  0.0000E+00  0.0000E+00  0.0000E+00  0.0000E+00  0.0000E+00  0.0000E+00  0.0000E+00  0.0000E+00  0.0000E+00  0.3674E+02  0.2448E+01  0.0000E+00  0.0000E+00
REACH    1        0     8  0.1194E+00  0.1701E-01  0.1701E-01  0.1772E-05  0.0000E+00  0.1221E+02  0.1221E+02  0.5759E+02  0.2725E+02  0.2725E+02  0.5925E+01  0.5923E+01  0.2902E+01  0.2901E+01  0.0000E+00  0.4745E-02  0.0000E+00  0.0000E+00  0.8123E-01  0.8279E-01  0.4914E+00  0.4865E+00  0.3118E+04  0.3113E+04  0.2587E+03  0.1667E+03  0.0000E+00  0.0000E+00  0.0000E+00  0.0000E+00  0.0000E+00  0.0000E+00  0.0000E+00  0.0000E+00  0.0000E+00  0.0000E+00  0.0000E+00  0.0000E+00  0.0000E+00  0.0000E+00  0.0000E+00  0.0000E+00  0.0000E+00  0.3015E+02  0.6006E+01  0.0000E+00  0.0000E+00
REACH    2        0     8  0.1067E+00  0.1504E-01  0.1503E-01  0.3847E-06  0.0000E+00  0.1051E+02  0.1051E+02  0.5335E+02  0.1762E+02  0.1762E+02  0.3840E+01  0.3839E+01  0.1960E+01  0.1960E+01  0.0000E+00  0.9569E-03  0.0000E+00  0.0000E+00  0.1219E+00  0.1222E+00  0.2601E+00  0.2594E+00  0.2425E+04  0.2423E+04  0.2584E+03  0.1598E+03  0.0000E+00  0.0000E+00  0.0000E+00  0.0000E+00  0.0000E+00  0.0000E+00  0.0000E+00  0.0000E+00  0.0000E+00  0.0000E+00  0.0000E+00  0.0000E+00  0.0000E+00  0.0000E+00  0.0000E+00  0.0000E+00  0.0000E+00  0.1958E+02  0.3961E+01  0.0000E+00  0.0000E+00
REACH    3        0     8  0.6245E+00  0.8847E-01  0.8843E-01  0.4271E-04  0.0000E+00  0.1281E+03  0.1281E+03  0.1334E+03  0.1308E+03  0.1306E+03  0.2939E+02  0.2933E+02  0.1318E+02  0.1317E+02  0.0000E+00  0.1626E+00  0.0000E+00  0.0000E+00  0.4300E+00  0.4852E+00  0.2059E+01  0.1968E+01  0.2746E+05  0.2716E+05  0.1422E+04  0.7615E+03  0.0000E+00  0.0000E+00  0.0000E+00  0.0000E+00  0.0000E+00  0.0000E+00  0.0000E+00  0.0000E+00  0.0000E+00  0.0000E+00  0.0000E+00  0.0000E+00  0.0000E+00  0.0000E+00  0.0000E+00  0.0000E+00  0.0000E+00  0.1440E+03  0.2981E+02  0.0000E+00  0.0000E+00
REACH    4        0     8  0.1189E+01  0.1682E+00  0.1682E+00  0.4463E-04  0.0000E+00  0.3245E+03  0.1449E+03  0.1859E+03  0.2333E+03  0.2331E+03  0.5174E+02  0.5167E+02  0.2457E+02  0.2456E+02  0.1674E+00  0.3413E+00  0.0000E+00  0.1952E-03  0.9871E+00  0.1046E+01  0.3571E+01  0.3492E+01  0.6427E+05  0.6385E+05  0.1981E+04  0.1386E+04  0.0000E+00  0.0000E+00  0.0000E+00  0.0000E+00  0.0000E+00  0.0000E+00  0.0000E+00  0.0000E+00  0.0000E+00  0.0000E+00  0.0000E+00  0.0000E+00  0.0000E+00  0.0000E+00  0.0000E+00  0.0000E+00  0.0000E+00  0.2580E+03  0.5271E+02  0.0000E+00  0.0000E+00
REACH    5        0     8  0.1468E+01  0.2074E+00  0.2074E+00  0.3161E-04  0.0000E+00  0.1676E+03  0.8048E+02  0.9396E+02  0.2722E+03  0.2720E+03  0.6019E+02  0.6010E+02  0.2891E+02  0.2891E+02  0.3422E+00  0.5515E+00  0.1952E-03  0.2209E-03  0.1565E+01  0.1639E+01  0.4073E+01  0.4003E+01  0.6910E+05  0.6860E+05  0.1992E+04  0.1706E+04  0.0000E+00  0.0000E+00  0.0000E+00  0.0000E+00  0.0000E+00  0.0000E+00  0.0000E+00  0.0000E+00  0.0000E+00  0.0000E+00  0.0000E+00  0.0000E+00  0.0000E+00  0.0000E+00  0.0000E+00  0.0000E+00  0.0000E+00  0.3014E+03  0.6174E+02  0.0000E+00  0.0000E+00
REACH    1        0     9  0.1194E+00  0.4288E-02  0.4286E-02  0.1344E-05  0.0000E+00  0.3273E+01  0.3273E+01  0.4591E+02  0.6012E+01  0.6011E+01  0.1307E+01  0.1307E+01  0.6793E+00  0.6792E+00  0.0000E+00  0.1118E-02  0.0000E+00  0.0000E+00  0.8363E-02  0.8643E-02  0.5446E-01  0.5391E-01  0.5824E+03  0.5818E+03  0.7359E+02  0.4527E+02  0.0000E+00  0.0000E+00  0.0000E+00  0.0000E+00  0.0000E+00  0.0000E+00  0.0000E+00  0.0000E+00  0.0000E+00  0.0000E+00  0.0000E+00  0.0000E+00  0.0000E+00  0.0000E+00  0.0000E+00  0.0000E+00  0.0000E+00  0.6692E+01  0.1316E+01  0.0000E+00  0.0000E+00
REACH    2        0     9  0.1067E+00  0.3817E-02  0.3817E-02  0.3261E-06  0.0000E+00  0.3126E+01  0.3126E+01  0.4713E+02  0.4262E+01  0.4262E+01  0.9295E+00  0.9294E+00  0.4466E+00  0.4465E+00  0.0000E+00  0.3381E-03  0.0000E+00  0.0000E+00  0.1841E-01  0.1851E-01  0.3465E-01  0.3450E-01  0.5252E+03  0.5248E+03  0.6884E+02  0.4115E+02  0.0000E+00  0.0000E+00  0.0000E+00  0.0000E+00  0.0000E+00  0.0000E+00  0.0000E+00  0.0000E+00  0.0000E+00  0.0000E+00  0.0000E+00  0.0000E+00  0.0000E+00  0.0000E+00  0.0000E+00  0.0000E+00  0.0000E+00  0.4709E+01  0.9479E+00  0.0000E+00  0.0000E+00
REACH    3        0     9  0.6245E+00  0.2339E-01  0.2334E-01  0.4188E-04  0.0000E+00  0.3860E+02  0.3860E+02  0.1126E+03  0.3149E+02  0.3144E+02  0.7117E+01  0.7101E+01  0.3060E+01  0.3055E+01  0.0000E+00  0.4533E-01  0.0000E+00  0.0000E+00  0.5159E-01  0.6382E-01  0.2870E+00  0.2698E+00  0.6053E+04  0.5994E+04  0.4045E+03  0.1958E+03  0.0000E+00  0.0000E+00  0.0000E+00  0.0000E+00  0.0000E+00  0.0000E+00  0.0000E+00  0.0000E+00  0.0000E+00  0.0000E+00  0.0000E+00  0.0000E+00  0.0000E+00  0.0000E+00  0.0000E+00  0.0000E+00  0.0000E+00  0.3454E+02  0.7165E+01  0.0000E+00  0.0000E+00
REACH    4        0     9  0.1189E+01  0.4375E-01  0.4371E-01  0.4538E-04  0.0000E+00  0.9691E+02  0.2944E+02  0.1214E+03  0.5505E+02  0.5501E+02  0.1226E+02  0.1224E+02  0.5609E+01  0.5604E+01  0.4645E-01  0.9575E-01  0.0000E+00  0.2575E-03  0.1350E+00  0.1486E+00  0.4671E+00  0.4518E+00  0.1496E+05  0.1486E+05  0.5255E+03  0.3358E+03  0.0000E+00  0.0000E+00  0.0000E+00  0.0000E+00  0.0000E+00  0.0000E+00  0.0000E+00  0.0000E+00  0.0000E+00  0.0000E+00  0.0000E+00  0.0000E+00  0.0000E+00  0.0000E+00  0.0000E+00  0.0000E+00  0.0000E+00  0.6070E+02  0.1239E+02  0.0000E+00  0.0000E+00
REACH    5        0     9  0.1468E+01  0.5324E-01  0.5321E-01  0.3027E-04  0.0000E+00  0.3622E+02  0.1481E+02  0.6452E+02  0.6452E+02  0.6443E+02  0.1432E+02  0.1429E+02  0.6604E+01  0.6600E+01  0.9609E-01  0.1683E+00  0.2575E-03  0.5436E-03  0.2332E+00  0.2573E+00  0.5303E+00  0.5142E+00  0.1600E+05  0.1585E+05  0.4838E+03  0.4103E+03  0.0000E+00  0.0000E+00  0.0000E+00  0.0000E+00  0.0000E+00  0.0000E+00  0.0000E+00  0.0000E+00  0.0000E+00  0.0000E+00  0.0000E+00  0.0000E+00  0.0000E+00  0.0000E+00  0.0000E+00  0.0000E+00  0.0000E+00  0.7120E+02  0.1455E+02  0.0000E+00  0.0000E+00
REACH    1        0    10  0.1194E+00  0.6446E-02  0.6444E-02  0.1745E-05  0.0000E+00  0.1566E+02  0.1566E+02  0.1512E+03  0.2649E+02  0.2648E+02  0.5765E+01  0.5762E+01  0.1349E+01  0.1349E+01  0.0000E+00  0.4321E-02  0.0000E+00  0.0000E+00  0.2320E-01  0.2462E-01  0.3159E+00  0.3121E+00  0.3035E+04  0.3030E+04  0.8802E+02  0.3743E+02  0.0000E+00  0.0000E+00  0.0000E+00  0.0000E+00  0.0000E+00  0.0000E+00  0.0000E+00  0.0000E+00  0.0000E+00  0.0000E+00  0.0000E+00  0.0000E+00  0.0000E+00  0.0000E+00  0.0000E+00  0.0000E+00  0.0000E+00  0.2784E+02  0.5787E+01  0.0000E+00  0.0000E+00
REACH    2        0    10  0.1067E+00  0.5796E-02  0.5795E-02  0.4952E-06  0.0000E+00  0.1536E+02  0.1536E+02  0.1589E+03  0.1850E+02  0.1850E+02  0.4041E+01  0.4040E+01  0.9921E+00  0.9920E+00  0.0000E+00  0.1347E-02  0.0000E+00  0.0000E+00  0.3925E-01  0.3971E-01  0.1956E+00  0.1947E+00  0.2676E+04  0.2674E+04  0.8891E+02  0.3362E+02  0.0000E+00  0.0000E+00  0.0000E+00  0.0000E+00  0.0000E+00  0.0000E+00  0.0000E+00  0.0000E+00  0.0000E+00  0.0000E+00  0.0000E+00  0.0000E+00  0.0000E+00  0.0000E+00  0.0000E+00  0.0000E+00  0.0000E+00  0.1949E+02  0.4080E+01  0.0000E+00  0.0000E+00
REACH    3        0    10  0.6245E+00  0.3485E-01  0.3481E-01  0.4473E-04  0.0000E+00  0.1592E+03  0.1592E+03  0.2913E+03  0.1420E+03  0.1418E+03  0.3234E+02  0.3228E+02  0.6551E+01  0.6542E+01  0.0000E+00  0.1440E+00  0.0000E+00  0.0000E+00  0.1343E+00  0.1842E+00  0.1716E+01  0.1634E+01  0.2589E+05  0.2566E+05  0.4872E+03  0.1842E+03  0.0000E+00  0.0000E+00  0.0000E+00  0.0000E+00  0.0000E+00  0.0000E+00  0.0000E+00  0.0000E+00  0.0000E+00  0.0000E+00  0.0000E+00  0.0000E+00  0.0000E+00  0.0000E+00  0.0000E+00  0.0000E+00  0.0000E+00  0.1485E+03  0.3246E+02  0.0000E+00  0.0000E+00
REACH    4        0    10  0.1189E+01  0.6563E-01  0.6559E-01  0.4610E-04  0.0000E+00  0.3194E+03  0.6144E+02  0.1173E+03  0.2405E+03  0.2403E+03  0.5387E+02  0.5380E+02  0.1206E+02  0.1206E+02  0.1483E+00  0.3030E+00  0.0000E+00  0.4331E-03  0.3412E+00  0.3945E+00  0.2714E+01  0.2642E+01  0.5222E+05  0.5192E+05  0.5839E+03  0.3267E+03  0.0000E+00  0.0000E+00  0.0000E+00  0.0000E+00  0.0000E+00  0.0000E+00  0.0000E+00  0.0000E+00  0.0000E+00  0.0000E+00  0.0000E+00  0.0000E+00  0.0000E+00  0.0000E+00  0.0000E+00  0.0000E+00  0.0000E+00  0.2526E+03  0.5420E+02  0.0000E+00  0.0000E+00
REACH    5        0    10  0.1468E+01  0.8039E-01  0.8035E-01  0.3614E-04  0.0000E+00  0.9465E+02  0.2737E+02  0.5949E+02  0.2816E+03  0.2813E+03  0.6283E+02  0.6271E+02  0.1426E+02  0.1426E+02  0.3044E+00  0.5787E+00  0.4331E-03  0.9772E-03  0.5648E+00  0.6638E+00  0.3083E+01  0.3001E+01  0.5774E+05  0.5719E+05  0.5114E+03  0.4002E+03  0.0000E+00  0.0000E+00  0.0000E+00  0.0000E+00  0.0000E+00  0.0000E+00  0.0000E+00  0.0000E+00  0.0000E+00  0.0000E+00  0.0000E+00  0.0000E+00  0.0000E+00  0.0000E+00  0.0000E+00  0.0000E+00  0.0000E+00  0.2961E+03  0.6337E+02  0.0000E+00  0.0000E+00
REACH    1        0    11  0.1194E+00  0.4858E-02  0.4857E-02  0.1357E-05  0.0000E+00  0.1488E+02  0.1488E+02  0.1666E+03  0.2169E+02  0.2169E+02  0.4722E+01  0.4721E+01  0.1163E+01  0.1163E+01  0.0000E+00  0.3347E-02  0.0000E+00  0.0000E+00  0.1146E-01  0.1254E-01  0.1985E+00  0.1963E+00  0.2302E+04  0.2298E+04  0.7505E+02  0.3836E+02  0.0000E+00  0.0000E+00  0.0000E+00  0.0000E+00  0.0000E+00  0.0000E+00  0.0000E+00  0.0000E+00  0.0000E+00  0.0000E+00  0.0000E+00  0.0000E+00  0.0000E+00  0.0000E+00  0.0000E+00  0.0000E+00  0.0000E+00  0.2285E+02  0.4733E+01  0.0000E+00  0.0000E+00
REACH    2        0    11  0.1067E+00  0.4367E-02  0.4366E-02  0.4654E-06  0.0000E+00  0.1428E+02  0.1428E+02  0.1795E+03  0.1412E+02  0.1412E+02  0.3087E+01  0.3086E+01  0.8646E+00  0.8645E+00  0.0000E+00  0.1046E-02  0.0000E+00  0.0000E+00  0.2245E-01  0.2280E-01  0.1014E+00  0.1009E+00  0.1801E+04  0.1799E+04  0.7396E+02  0.3477E+02  0.0000E+00  0.0000E+00  0.0000E+00  0.0000E+00  0.0000E+00  0.0000E+00  0.0000E+00  0.0000E+00  0.0000E+00  0.0000E+00  0.0000E+00  0.0000E+00  0.0000E+00  0.0000E+00  0.0000E+00  0.0000E+00  0.0000E+00  0.1498E+02  0.3109E+01  0.0000E+00  0.0000E+00
REACH    3        0    11  0.6245E+00  0.2657E-01  0.2653E-01  0.4237E-04  0.0000E+00  0.1480E+03  0.1480E+03  0.3159E+03  0.1226E+03  0.1225E+03  0.2816E+02  0.2810E+02  0.5612E+01  0.5604E+01  0.0000E+00  0.1307E+00  0.0000E+00  0.0000E+00  0.6374E-01  0.1085E+00  0.1160E+01  0.1090E+01  0.1838E+05  0.1820E+05  0.4238E+03  0.2034E+03  0.0000E+00  0.0000E+00  0.0000E+00  0.0000E+00  0.0000E+00  0.0000E+00  0.0000E+00  0.0000E+00  0.0000E+00  0.0000E+00  0.0000E+00  0.0000E+00  0.0000E+00  0.0000E+00  0.0000E+00  0.0000E+00  0.0000E+00  0.1282E+03  0.2821E+02  0.0000E+00  0.0000E+00
REACH    4        0    11  0.1189E+01  0.4981E-01  0.4976E-01  0.4552E-04  0.0000E+00  0.2770E+03  0.3734E+02  0.1280E+03  0.1987E+03  0.1986E+03  0.4481E+02  0.4475E+02  0.1044E+02  0.1044E+02  0.1340E+00  0.2727E+00  0.0000E+00  0.3950E-03  0.1965E+00  0.2439E+00  0.1682E+01  0.1625E+01  0.3532E+05  0.3510E+05  0.5464E+03  0.3535E+03  0.0000E+00  0.0000E+00  0.0000E+00  0.0000E+00  0.0000E+00  0.0000E+00  0.0000E+00  0.0000E+00  0.0000E+00  0.0000E+00  0.0000E+00  0.0000E+00  0.0000E+00  0.0000E+00  0.0000E+00  0.0000E+00  0.0000E+00  0.2093E+03  0.4500E+02  0.0000E+00  0.0000E+00
REACH    5        0    11  0.1468E+01  0.6074E-01  0.6071E-01  0.3191E-04  0.0000E+00  0.6821E+02  0.1980E+02  0.6868E+02  0.2303E+03  0.2300E+03  0.5169E+02  0.5159E+02  0.1237E+02  0.1236E+02  0.2738E+00  0.4983E+00  0.3950E-03  0.9073E-03  0.3475E+00  0.4287E+00  0.1858E+01  0.1804E+01  0.3905E+05  0.3868E+05  0.5059E+03  0.4295E+03  0.0000E+00  0.0000E+00  0.0000E+00  0.0000E+00  0.0000E+00  0.0000E+00  0.0000E+00  0.0000E+00  0.0000E+00  0.0000E+00  0.0000E+00  0.0000E+00  0.0000E+00  0.0000E+00  0.0000E+00  0.0000E+00  0.0000E+00  0.2428E+03  0.5202E+02  0.0000E+00  0.0000E+00
REACH    1        0    12  0.1194E+00  0.9086E-02  0.9085E-02  0.1799E-05  0.0000E+00  0.4991E+02  0.4991E+02  0.4460E+03  0.6137E+02  0.6136E+02  0.1336E+02  0.1336E+02  0.2833E+01  0.2833E+01  0.0000E+00  0.7885E-02  0.0000E+00  0.0000E+00  0.1949E-01  0.2221E-01  0.6097E+00  0.6040E+00  0.6994E+04  0.6985E+04  0.1494E+03  0.7747E+02  0.0000E+00  0.0000E+00  0.0000E+00  0.0000E+00  0.0000E+00  0.0000E+00  0.0000E+00  0.0000E+00  0.0000E+00  0.0000E+00  0.0000E+00  0.0000E+00  0.0000E+00  0.0000E+00  0.0000E+00  0.0000E+00  0.0000E+00  0.6420E+02  0.1338E+02  0.0000E+00  0.0000E+00
REACH    2        0    12  0.1067E+00  0.8120E-02  0.8119E-02  0.4995E-06  0.0000E+00  0.4971E+02  0.4971E+02  0.4931E+03  0.4027E+02  0.4026E+02  0.8808E+01  0.8806E+01  0.2035E+01  0.2035E+01  0.0000E+00  0.3036E-02  0.0000E+00  0.0000E+00  0.4564E-01  0.4671E-01  0.3287E+00  0.3271E+00  0.5749E+04  0.5745E+04  0.1442E+03  0.7105E+02  0.0000E+00  0.0000E+00  0.0000E+00  0.0000E+00  0.0000E+00  0.0000E+00  0.0000E+00  0.0000E+00  0.0000E+00  0.0000E+00  0.0000E+00  0.0000E+00  0.0000E+00  0.0000E+00  0.0000E+00  0.0000E+00  0.0000E+00  0.4230E+02  0.8853E+01  0.0000E+00  0.0000E+00
REACH    3        0    12  0.6245E+00  0.4869E-01  0.4864E-01  0.4182E-04  0.0000E+00  0.5120E+03  0.5120E+03  0.8704E+03  0.3596E+03  0.3591E+03  0.8285E+02  0.8269E+02  0.1370E+02  0.1369E+02  0.0000E+00  0.3455E+00  0.0000E+00  0.0000E+00  0.1055E+00  0.2325E+00  0.3676E+01  0.3490E+01  0.5730E+05  0.5680E+05  0.8189E+03  0.4068E+03  0.0000E+00  0.0000E+00  0.0000E+00  0.0000E+00  0.0000E+00  0.0000E+00  0.0000E+00  0.0000E+00  0.0000E+00  0.0000E+00  0.0000E+00  0.0000E+00  0.0000E+00  0.0000E+00  0.0000E+00  0.0000E+00  0.0000E+00  0.3732E+03  0.8292E+02  0.0000E+00  0.0000E+00
REACH    4        0    12  0.1189E+01  0.9182E-01  0.9177E-01  0.4453E-04  0.0000E+00  0.9121E+03  0.8030E+02  0.1751E+03  0.5736E+03  0.5732E+03  0.1297E+03  0.1296E+03  0.2522E+02  0.2521E+02  0.3534E+00  0.7000E+00  0.0000E+00  0.5096E-03  0.4077E+00  0.5330E+00  0.5353E+01  0.5204E+01  0.1044E+06  0.1038E+06  0.1078E+04  0.7398E+03  0.0000E+00  0.0000E+00  0.0000E+00  0.0000E+00  0.0000E+00  0.0000E+00  0.0000E+00  0.0000E+00  0.0000E+00  0.0000E+00  0.0000E+00  0.0000E+00  0.0000E+00  0.0000E+00  0.0000E+00  0.0000E+00  0.0000E+00  0.5991E+03  0.1301E+03  0.0000E+00  0.0000E+00
REACH    5        0    12  0.1468E+01  0.1125E+00  0.1125E+00  0.3805E-04  0.0000E+00  0.1877E+03  0.3592E+02  0.8737E+02  0.6639E+03  0.6629E+03  0.1494E+03  0.1491E+03  0.2974E+02  0.2973E+02  0.7031E+00  0.1409E+01  0.5096E-03  0.1401E-02  0.7504E+00  0.1011E+01  0.5954E+01  0.5779E+01  0.1164E+06  0.1151E+06  0.1047E+04  0.9037E+03  0.0000E+00  0.0000E+00  0.0000E+00  0.0000E+00  0.0000E+00  0.0000E+00  0.0000E+00  0.0000E+00  0.0000E+00  0.0000E+00  0.0000E+00  0.0000E+00  0.0000E+00  0.0000E+00  0.0000E+00  0.0000E+00  0.0000E+00  0.6940E+03  0.1501E+03  0.0000E+00  0.0000E+00
REACH    1        0  2013  0.1194E+00  0.8153E-02  0.8151E-02  0.1431E-05  0.0000E+00  0.2575E+03  0.2575E+03  0.1691E+03  0.5048E+03  0.5047E+03  0.1107E+03  0.1106E+03  0.2090E+02  0.2090E+02  0.0000E+00  0.8840E-01  0.0000E+00  0.0000E+00  0.3529E+00  0.3834E+00  0.5875E+01  0.5806E+01  0.4046E+05  0.4039E+05  0.1567E+04  0.9868E+03  0.0000E+00  0.0000E+00  0.0000E+00  0.0000E+00  0.0000E+00  0.0000E+00  0.0000E+00  0.0000E+00  0.0000E+00  0.0000E+00  0.0000E+00  0.0000E+00  0.0000E+00  0.0000E+00  0.0000E+00  0.0000E+00  0.0000E+00  0.5257E+03  0.1110E+03  0.0000E+00  0.0000E+00
REACH    2        0  2013  0.1067E+00  0.7311E-02  0.7310E-02  0.3663E-06  0.0000E+00  0.2889E+03  0.2889E+03  0.2059E+03  0.4191E+03  0.4190E+03  0.9215E+02  0.9213E+02  0.1591E+02  0.1591E+02  0.0000E+00  0.2619E-01  0.0000E+00  0.0000E+00  0.6227E+00  0.6318E+00  0.4568E+01  0.4551E+01  0.3930E+05  0.3928E+05  0.1514E+04  0.9188E+03  0.0000E+00  0.0000E+00  0.0000E+00  0.0000E+00  0.0000E+00  0.0000E+00  0.0000E+00  0.0000E+00  0.0000E+00  0.0000E+00  0.0000E+00  0.0000E+00  0.0000E+00  0.0000E+00  0.0000E+00  0.0000E+00  0.0000E+00  0.4350E+03  0.9276E+02  0.0000E+00  0.0000E+00
REACH    3        0  2013  0.6245E+00  0.4343E-01  0.4339E-01  0.3727E-04  0.0000E+00  0.2707E+04  0.2707E+04  0.3436E+03  0.2686E+04  0.2683E+04  0.6002E+03  0.5991E+03  0.1028E+03  0.1027E+03  0.0000E+00  0.2609E+01  0.0000E+00  0.0000E+00  0.2343E+01  0.3251E+01  0.3077E+02  0.2945E+02  0.3449E+06  0.3418E+06  0.8449E+04  0.3946E+04  0.0000E+00  0.0000E+00  0.0000E+00  0.0000E+00  0.0000E+00  0.0000E+00  0.0000E+00  0.0000E+00  0.0000E+00  0.0000E+00  0.0000E+00  0.0000E+00  0.0000E+00  0.0000E+00  0.0000E+00  0.0000E+00  0.0000E+00  0.2788E+04  0.6023E+03  0.0000E+00  0.0000E+00
REACH    4        0  2013  0.1189E+01  0.8219E-01  0.8215E-01  0.3909E-04  0.0000E+00  0.5285E+04  0.8558E+03  0.1414E+03  0.5053E+04  0.5050E+04  0.1121E+04  0.1120E+04  0.1926E+03  0.1925E+03  0.2698E+01  0.5644E+01  0.0000E+00  0.6178E-02  0.5814E+01  0.6843E+01  0.5687E+02  0.5563E+02  0.7009E+06  0.6971E+06  0.1111E+05  0.7009E+04  0.0000E+00  0.0000E+00  0.0000E+00  0.0000E+00  0.0000E+00  0.0000E+00  0.0000E+00  0.0000E+00  0.0000E+00  0.0000E+00  0.0000E+00  0.0000E+00  0.0000E+00  0.0000E+00  0.0000E+00  0.0000E+00  0.0000E+00  0.5248E+04  0.1127E+04  0.0000E+00  0.0000E+00
REACH    5        0  2013  0.1468E+01  0.1010E+00  0.1010E+00  0.2902E-04  0.0000E+00  0.1478E+04  0.4330E+03  0.7284E+02  0.5978E+04  0.5971E+04  0.1324E+04  0.1322E+04  0.2279E+03  0.2277E+03  0.5671E+01  0.1115E+02  0.6178E-02  0.1440E-01  0.9556E+01  0.1154E+02  0.6579E+02  0.6427E+02  0.7825E+06  0.7757E+06  0.1046E+05  0.8610E+04  0.0000E+00  0.0000E+00  0.0000E+00  0.0000E+00  0.0000E+00  0.0000E+00  0.0000E+00  0.0000E+00  0.0000E+00  0.0000E+00  0.0000E+00  0.0000E+00  0.0000E+00  0.0000E+00  0.0000E+00  0.0000E+00  0.0000E+00  0.6210E+04  0.1333E+04  0.0000E+00  0.0000E+00
REACH    1        0     1  0.1194E+00  0.1991E-01  0.1991E-01  0.2055E-05  0.0000E+00  0.9338E+02  0.9338E+02  0.6191E+03  0.3130E+03  0.3130E+03  0.6877E+02  0.6874E+02  0.5091E+01  0.5090E+01  0.0000E+00  0.5005E-01  0.0000E+00  0.0000E+00  0.1295E+00  0.1476E+00  0.3571E+01  0.3532E+01  0.1378E+05  0.1376E+05  0.3280E+03  0.2115E+03  0.0000E+00  0.0000E+00  0.0000E+00  0.0000E+00  0.0000E+00  0.0000E+00  0.0000E+00  0.0000E+00  0.0000E+00  0.0000E+00  0.0000E+00  0.0000E+00  0.0000E+00  0.0000E+00  0.0000E+00  0.0000E+00  0.0000E+00  0.3181E+03  0.6889E+02  0.0000E+00  0.0000E+00
REACH    2        0     1  0.1067E+00  0.1802E-01  0.1802E-01  0.8170E-06  0.0000E+00  0.1065E+03  0.1065E+03  0.7706E+03  0.2696E+03  0.2696E+03  0.5936E+02  0.5935E+02  0.3489E+01  0.3488E+01  0.0000E+00  0.1678E-01  0.0000E+00  0.0000E+00  0.1824E+00  0.1884E+00  0.2883E+01  0.2873E+01  0.1383E+05  0.1382E+05  0.3131E+03  0.1888E+03  0.0000E+00  0.0000E+00  0.0000E+00  0.0000E+00  0.0000E+00  0.0000E+00  0.0000E+00  0.0000E+00  0.0000E+00  0.0000E+00  0.0000E+00  0.0000E+00  0.0000E+00  0.0000E+00  0.0000E+00  0.0000E+00  0.0000E+00  0.2731E+03  0.5954E+02  0.0000E+00  0.0000E+00
REACH    3        0     1  0.6245E+00  0.1057E+00  0.1056E+00  0.4696E-04  0.0000E+00  0.1100E+04  0.1100E+04  0.1425E+04  0.2323E+04  0.2320E+04  0.5206E+03  0.5196E+03  0.2207E+02  0.2204E+02  0.0000E+00  0.2230E+01  0.0000E+00  0.0000E+00  0.6908E+00  0.1513E+01  0.2856E+02  0.2731E+02  0.1358E+06  0.1345E+06  0.1723E+04  0.1054E+04  0.0000E+00  0.0000E+00  0.0000E+00  0.0000E+00  0.0000E+00  0.0000E+00  0.0000E+00  0.0000E+00  0.0000E+00  0.0000E+00  0.0000E+00  0.0000E+00  0.0000E+00  0.0000E+00  0.0000E+00  0.0000E+00  0.0000E+00  0.2344E+04  0.5211E+03  0.0000E+00  0.0000E+00
REACH    4        0     1  0.1189E+01  0.2008E+00  0.2007E+00  0.4931E-04  0.0000E+00  0.1869E+04  0.2020E+03  0.2294E+03  0.3896E+04  0.3892E+04  0.8671E+03  0.8659E+03  0.4235E+02  0.4230E+02  0.2280E+01  0.4881E+01  0.0000E+00  0.3262E-02  0.2336E+01  0.3291E+01  0.4576E+02  0.4461E+02  0.2329E+06  0.2313E+06  0.2546E+04  0.1911E+04  0.0000E+00  0.0000E+00  0.0000E+00  0.0000E+00  0.0000E+00  0.0000E+00  0.0000E+00  0.0000E+00  0.0000E+00  0.0000E+00  0.0000E+00  0.0000E+00  0.0000E+00  0.0000E+00  0.0000E+00  0.0000E+00  0.0000E+00  0.3939E+04  0.8692E+03  0.0000E+00  0.0000E+00
REACH    5        0     1  0.1468E+01  0.2477E+00  0.2476E+00  0.6466E-04  0.0000E+00  0.4315E+03  0.8010E+02  0.8925E+02  0.4488E+04  0.4483E+04  0.9970E+03  0.9952E+03  0.5009E+02  0.5002E+02  0.4897E+01  0.8925E+01  0.3262E-02  0.8447E-02  0.4003E+01  0.5485E+01  0.5100E+02  0.4994E+02  0.2614E+06  0.2591E+06  0.2637E+04  0.2374E+04  0.0000E+00  0.0000E+00  0.0000E+00  0.0000E+00  0.0000E+00  0.0000E+00  0.0000E+00  0.0000E+00  0.0000E+00  0.0000E+00  0.0000E+00  0.0000E+00  0.0000E+00  0.0000E+00  0.0000E+00  0.0000E+00  0.0000E+00  0.4541E+04  0.1001E+04  0.0000E+00  0.0000E+00
REACH    1        0     2  0.1194E+00  0.1242E-01  0.1242E-01  0.2207E-05  0.0000E+00  0.3341E+01  0.3341E+01  0.9482E+02  0.9463E+01  0.9460E+01  0.2079E+01  0.2078E+01  0.8641E-01  0.8638E-01  0.0000E+00  0.1970E-02  0.0000E+00  0.0000E+00  0.6779E-02  0.7371E-02  0.3508E-01  0.3441E-01  0.3335E+03  0.3329E+03  0.1983E+03  0.1363E+03  0.0000E+00  0.0000E+00  0.0000E+00  0.0000E+00  0.0000E+00  0.0000E+00  0.0000E+00  0.0000E+00  0.0000E+00  0.0000E+00  0.0000E+00  0.0000E+00  0.0000E+00  0.0000E+00  0.0000E+00  0.0000E+00  0.0000E+00  0.9549E+01  0.2085E+01  0.0000E+00  0.0000E+00
REACH    2        0     2  0.1067E+00  0.1127E-01  0.1127E-01  0.6393E-06  0.0000E+00  0.3853E+01  0.3853E+01  0.1274E+03  0.7937E+01  0.7937E+01  0.1748E+01  0.1748E+01  0.5986E-01  0.5986E-01  0.0000E+00  0.5424E-03  0.0000E+00  0.0000E+00  0.5366E-01  0.5382E-01  0.2638E-01  0.2624E-01  0.3371E+03  0.3369E+03  0.1811E+03  0.1161E+03  0.0000E+00  0.0000E+00  0.0000E+00  0.0000E+00  0.0000E+00  0.0000E+00  0.0000E+00  0.0000E+00  0.0000E+00  0.0000E+00  0.0000E+00  0.0000E+00  0.0000E+00  0.0000E+00  0.0000E+00  0.0000E+00  0.0000E+00  0.7997E+01  0.1802E+01  0.0000E+00  0.0000E+00
REACH    3        0     2  0.6245E+00  0.6665E-01  0.6660E-01  0.4896E-04  0.0000E+00  0.6074E+02  0.6074E+02  0.2767E+03  0.8482E+02  0.8465E+02  0.1919E+02  0.1913E+02  0.1422E+01  0.1421E+01  0.0000E+00  0.1176E+00  0.0000E+00  0.0000E+00  0.3429E-01  0.7396E-01  0.5435E+00  0.4896E+00  0.6934E+04  0.6853E+04  0.9516E+03  0.2780E+03  0.0000E+00  0.0000E+00  0.0000E+00  0.0000E+00  0.0000E+00  0.0000E+00  0.0000E+00  0.0000E+00  0.0000E+00  0.0000E+00  0.0000E+00  0.0000E+00  0.0000E+00  0.0000E+00  0.0000E+00  0.0000E+00  0.0000E+00  0.8618E+02  0.1921E+02  0.0000E+00  0.0000E+00
REACH    4        0     2  0.1189E+01  0.1262E+00  0.1262E+00  0.5154E-04  0.0000E+00  0.1358E+03  0.1015E+03  0.1993E+03  0.1323E+03  0.1322E+03  0.2970E+02  0.2965E+02  0.4407E+01  0.4405E+01  0.1196E+00  0.2449E+00  0.0000E+00  0.4861E-03  0.2636E+00  0.3061E+00  0.7556E+00  0.7140E+00  0.1713E+05  0.1700E+05  0.1136E+04  0.4392E+03  0.0000E+00  0.0000E+00  0.0000E+00  0.0000E+00  0.0000E+00  0.0000E+00  0.0000E+00  0.0000E+00  0.0000E+00  0.0000E+00  0.0000E+00  0.0000E+00  0.0000E+00  0.0000E+00  0.0000E+00  0.0000E+00  0.0000E+00  0.1368E+03  0.2995E+02  0.0000E+00  0.0000E+00
REACH    5        0     2  0.1468E+01  0.1556E+00  0.1555E+00  0.4587E-04  0.0000E+00  0.1098E+03  0.4993E+02  0.9638E+02  0.1498E+03  0.1497E+03  0.3353E+02  0.3348E+02  0.4539E+01  0.4538E+01  0.2455E+00  0.3777E+00  0.4861E-03  0.9019E-03  0.5864E+00  0.6330E+00  0.7737E+00  0.7485E+00  0.1773E+05  0.1758E+05  0.8601E+03  0.5496E+03  0.0000E+00  0.0000E+00  0.0000E+00  0.0000E+00  0.0000E+00  0.0000E+00  0.0000E+00  0.0000E+00  0.0000E+00  0.0000E+00  0.0000E+00  0.0000E+00  0.0000E+00  0.0000E+00  0.0000E+00  0.0000E+00  0.0000E+00  0.1546E+03  0.3411E+02  0.0000E+00  0.0000E+00
REACH    1        0     3  0.1194E+00  0.5788E-02  0.5787E-02  0.1525E-05  0.0000E+00  0.1561E+00  0.1561E+00  0.1567E+01  0.3758E+00  0.3757E+00  0.8153E-01  0.8150E-01  0.2761E-01  0.2760E-01  0.0000E+00  0.5020E-03  0.0000E+00  0.0000E+00  0.5962E-02  0.6015E-02  0.4410E-02  0.4365E-02  0.3402E+02  0.3397E+02  0.1091E+03  0.8881E+02  0.0000E+00  0.0000E+00  0.0000E+00  0.0000E+00  0.0000E+00  0.0000E+00  0.0000E+00  0.0000E+00  0.0000E+00  0.0000E+00  0.0000E+00  0.0000E+00  0.0000E+00  0.0000E+00  0.0000E+00  0.0000E+00  0.0000E+00  0.4038E+00  0.8752E-01  0.0000E+00  0.0000E+00
REACH    2        0     3  0.1067E+00  0.5237E-02  0.5237E-02  0.5114E-06  0.0000E+00  0.1851E+00  0.1851E+00  0.2094E+01  0.3473E+00  0.3472E+00  0.7551E-01  0.7549E-01  0.1766E-01  0.1765E-01  0.0000E+00  0.1389E-03  0.0000E+00  0.0000E+00  0.2507E-01  0.2508E-01  0.3819E-02  0.3797E-02  0.3902E+02  0.3898E+02  0.9765E+02  0.7684E+02  0.0000E+00  0.0000E+00  0.0000E+00  0.0000E+00  0.0000E+00  0.0000E+00  0.0000E+00  0.0000E+00  0.0000E+00  0.0000E+00  0.0000E+00  0.0000E+00  0.0000E+00  0.0000E+00  0.0000E+00  0.0000E+00  0.0000E+00  0.3650E+00  0.1006E+00  0.0000E+00  0.0000E+00
REACH    3        0     3  0.6245E+00  0.3166E-01  0.3161E-01  0.4640E-04  0.0000E+00  0.1551E+02  0.1551E+02  0.4123E+02  0.4970E+01  0.4963E+01  0.1117E+01  0.1114E+01  0.4005E+00  0.4002E+00  0.0000E+00  0.2034E-01  0.0000E+00  0.0000E+00  0.1448E-01  0.1669E-01  0.7996E-01  0.7538E-01  0.2586E+04  0.2560E+04  0.5327E+03  0.3051E+03  0.0000E+00  0.0000E+00  0.0000E+00  0.0000E+00  0.0000E+00  0.0000E+00  0.0000E+00  0.0000E+00  0.0000E+00  0.0000E+00  0.0000E+00  0.0000E+00  0.0000E+00  0.0000E+00  0.0000E+00  0.0000E+00  0.0000E+00  0.5384E+01  0.1131E+01  0.0000E+00  0.0000E+00
REACH    4        0     3  0.1189E+01  0.5948E-01  0.5943E-01  0.4974E-04  0.0000E+00  0.6621E+02  0.4752E+02  0.1369E+03  0.8473E+01  0.8466E+01  0.1902E+01  0.1899E+01  0.9194E+00  0.9186E+00  0.2084E-01  0.4300E-01  0.0000E+00  0.1366E-03  0.1061E+00  0.1093E+00  0.1412E+00  0.1365E+00  0.1056E+05  0.1049E+05  0.7865E+03  0.5242E+03  0.0000E+00  0.0000E+00  0.0000E+00  0.0000E+00  0.0000E+00  0.0000E+00  0.0000E+00  0.0000E+00  0.0000E+00  0.0000E+00  0.0000E+00  0.0000E+00  0.0000E+00  0.0000E+00  0.0000E+00  0.0000E+00  0.0000E+00  0.9428E+01  0.2009E+01  0.0000E+00  0.0000E+00
REACH    5        0     3  0.1468E+01  0.7275E-01  0.7271E-01  0.3946E-04  0.0000E+00  0.4792E+02  0.2167E+02  0.6951E+02  0.9231E+01  0.9216E+01  0.2066E+01  0.2061E+01  0.9584E+00  0.9578E+00  0.4313E-01  0.6406E-01  0.1366E-03  0.3354E-03  0.2370E+00  0.2417E+00  0.1449E+00  0.1400E+00  0.1057E+05  0.1044E+05  0.7582E+03  0.6537E+03  0.0000E+00  0.0000E+00  0.0000E+00  0.0000E+00  0.0000E+00  0.0000E+00  0.0000E+00  0.0000E+00  0.0000E+00  0.0000E+00  0.0000E+00  0.0000E+00  0.0000E+00  0.0000E+00  0.0000E+00  0.0000E+00  0.0000E+00  0.1024E+02  0.2303E+01  0.0000E+00  0.0000E+00
REACH    1        0     4  0.1194E+00  0.1373E-01  0.1373E-01  0.1835E-05  0.0000E+00  0.2084E+00  0.2084E+00  0.2461E+01  0.5005E+00  0.5004E+00  0.1080E+00  0.1080E+00  0.6499E+00  0.6498E+00  0.0000E+00  0.5348E-03  0.0000E+00  0.0000E+00  0.2420E-01  0.2427E-01  0.3449E-02  0.3413E-02  0.3271E+02  0.3267E+02  0.2750E+03  0.2445E+03  0.0000E+00  0.0000E+00  0.0000E+00  0.0000E+00  0.0000E+00  0.0000E+00  0.0000E+00  0.0000E+00  0.0000E+00  0.0000E+00  0.0000E+00  0.0000E+00  0.0000E+00  0.0000E+00  0.0000E+00  0.0000E+00  0.0000E+00  0.1151E+01  0.1322E+00  0.0000E+00  0.0000E+00
REACH    2        0     4  0.1067E+00  0.1256E-01  0.1256E-01  0.5868E-06  0.0000E+00  0.2143E+00  0.2143E+00  0.2738E+01  0.3937E+00  0.3936E+00  0.8498E-01  0.8497E-01  0.4739E+00  0.4739E+00  0.0000E+00  0.1572E-03  0.0000E+00  0.0000E+00  0.7575E-01  0.7577E-01  0.2168E-02  0.2157E-02  0.2969E+02  0.2967E+02  0.2531E+03  0.2242E+03  0.0000E+00  0.0000E+00  0.0000E+00  0.0000E+00  0.0000E+00  0.0000E+00  0.0000E+00  0.0000E+00  0.0000E+00  0.0000E+00  0.0000E+00  0.0000E+00  0.0000E+00  0.0000E+00  0.0000E+00  0.0000E+00  0.0000E+00  0.8677E+00  0.1607E+00  0.0000E+00  0.0000E+00
REACH    3        0     4  0.6245E+00  0.7358E-01  0.7354E-01  0.4098E-04  0.0000E+00  0.2722E+02  0.2722E+02  0.7526E+02  0.4910E+01  0.4904E+01  0.1091E+01  0.1089E+01  0.2588E+01  0.2587E+01  0.0000E+00  0.1996E-01  0.0000E+00  0.0000E+00  0.7427E-01  0.7686E-01  0.4036E-01  0.3801E-01  0.4039E+04  0.4000E+04  0.1374E+04  0.4450E+03  0.0000E+00  0.0000E+00  0.0000E+00  0.0000E+00  0.0000E+00  0.0000E+00  0.0000E+00  0.0000E+00  0.0000E+00  0.0000E+00  0.0000E+00  0.0000E+00  0.0000E+00  0.0000E+00  0.0000E+00  0.0000E+00  0.0000E+00  0.7511E+01  0.1166E+01  0.0000E+00  0.0000E+00
REACH    4        0     4  0.1189E+01  0.1399E+00  0.1399E+00  0.4312E-04  0.0000E+00  0.1226E+03  0.1235E+03  0.2304E+03  0.8238E+01  0.8231E+01  0.1835E+01  0.1832E+01  0.5601E+01  0.5599E+01  0.2050E-01  0.4202E-01  0.0000E+00  0.6028E-04  0.3493E+00  0.3526E+00  0.7805E-01  0.7538E-01  0.1834E+05  0.1823E+05  0.1706E+04  0.7441E+03  0.0000E+00  0.0000E+00  0.0000E+00  0.0000E+00  0.0000E+00  0.0000E+00  0.0000E+00  0.0000E+00  0.0000E+00  0.0000E+00  0.0000E+00  0.0000E+00  0.0000E+00  0.0000E+00  0.0000E+00  0.0000E+00  0.0000E+00  0.1387E+02  0.2185E+01  0.0000E+00  0.0000E+00
REACH    5        0     4  0.1468E+01  0.1729E+00  0.1728E+00  0.4268E-04  0.0000E+00  0.1239E+03  0.5874E+02  0.1078E+03  0.9099E+01  0.9087E+01  0.2020E+01  0.2016E+01  0.6655E+01  0.6654E+01  0.4218E-01  0.6211E-01  0.6028E-04  0.1496E-03  0.7299E+00  0.7341E+00  0.8027E-01  0.7792E-01  0.1829E+05  0.1812E+05  0.1388E+04  0.9306E+03  0.0000E+00  0.0000E+00  0.0000E+00  0.0000E+00  0.0000E+00  0.0000E+00  0.0000E+00  0.0000E+00  0.0000E+00  0.0000E+00  0.0000E+00  0.0000E+00  0.0000E+00  0.0000E+00  0.0000E+00  0.0000E+00  0.0000E+00  0.1580E+02  0.2750E+01  0.0000E+00  0.0000E+00
REACH    1        0     5  0.1194E+00  0.6782E-02  0.6780E-02  0.1479E-05  0.0000E+00  0.2283E+00  0.2283E+00  0.1843E+01  0.4876E+00  0.4875E+00  0.1053E+00  0.1052E+00  0.1609E+01  0.1609E+01  0.0000E+00  0.5326E-03  0.0000E+00  0.0000E+00  0.2189E-01  0.2194E-01  0.6621E-02  0.6544E-02  0.4846E+02  0.4838E+02  0.1257E+03  0.9928E+02  0.0000E+00  0.0000E+00  0.0000E+00  0.0000E+00  0.0000E+00  0.0000E+00  0.0000E+00  0.0000E+00  0.0000E+00  0.0000E+00  0.0000E+00  0.0000E+00  0.0000E+00  0.0000E+00  0.0000E+00  0.0000E+00  0.0000E+00  0.2097E+01  0.1272E+00  0.0000E+00  0.0000E+00
REACH    2        0     5  0.1067E+00  0.6090E-02  0.6090E-02  0.3630E-06  0.0000E+00  0.2443E+00  0.2443E+00  0.2122E+01  0.4083E+00  0.4083E+00  0.8821E-01  0.8819E-01  0.1272E+01  0.1272E+01  0.0000E+00  0.1285E-03  0.0000E+00  0.0000E+00  0.4228E-01  0.4229E-01  0.5139E-02  0.5118E-02  0.4930E+02  0.4927E+02  0.1134E+03  0.8601E+02  0.0000E+00  0.0000E+00  0.0000E+00  0.0000E+00  0.0000E+00  0.0000E+00  0.0000E+00  0.0000E+00  0.0000E+00  0.0000E+00  0.0000E+00  0.0000E+00  0.0000E+00  0.0000E+00  0.0000E+00  0.0000E+00  0.0000E+00  0.1680E+01  0.1305E+00  0.0000E+00  0.0000E+00
REACH    3        0     5  0.6245E+00  0.3539E-01  0.3535E-01  0.3918E-04  0.0000E+00  0.1218E+02  0.1218E+02  0.3335E+02  0.3079E+01  0.3076E+01  0.6740E+00  0.6729E+00  0.6532E+01  0.6526E+01  0.0000E+00  0.1756E-01  0.0000E+00  0.0000E+00  0.7178E-01  0.7307E-01  0.3737E-01  0.3576E-01  0.2045E+04  0.2027E+04  0.6173E+03  0.3329E+03  0.0000E+00  0.0000E+00  0.0000E+00  0.0000E+00  0.0000E+00  0.0000E+00  0.0000E+00  0.0000E+00  0.0000E+00  0.0000E+00  0.0000E+00  0.0000E+00  0.0000E+00  0.0000E+00  0.0000E+00  0.0000E+00  0.0000E+00  0.9619E+01  0.7459E+00  0.0000E+00  0.0000E+00
REACH    4        0     5  0.1189E+01  0.6758E-01  0.6754E-01  0.4192E-04  0.0000E+00  0.5150E+02  0.5877E+02  0.1462E+03  0.5507E+01  0.5503E+01  0.1203E+01  0.1201E+01  0.1345E+02  0.1344E+02  0.1809E-01  0.3729E-01  0.0000E+00  0.1465E-03  0.2377E+00  0.2398E+00  0.6825E-01  0.6656E-01  0.8501E+04  0.8450E+04  0.8845E+03  0.5790E+03  0.0000E+00  0.0000E+00  0.0000E+00  0.0000E+00  0.0000E+00  0.0000E+00  0.0000E+00  0.0000E+00  0.0000E+00  0.0000E+00  0.0000E+00  0.0000E+00  0.0000E+00  0.0000E+00  0.0000E+00  0.0000E+00  0.0000E+00  0.1898E+02  0.1441E+01  0.0000E+00  0.0000E+00
REACH    5        0     5  0.1468E+01  0.8325E-01  0.8321E-01  0.3178E-04  0.0000E+00  0.5930E+02  0.2609E+02  0.7418E+02  0.6402E+01  0.6394E+01  0.1396E+01  0.1393E+01  0.1628E+02  0.1627E+02  0.3742E-01  0.5400E-01  0.1465E-03  0.3433E-03  0.4275E+00  0.4306E+00  0.7821E-01  0.7612E-01  0.8556E+04  0.8469E+04  0.8528E+03  0.7146E+03  0.0000E+00  0.0000E+00  0.0000E+00  0.0000E+00  0.0000E+00  0.0000E+00  0.0000E+00  0.0000E+00  0.0000E+00  0.0000E+00  0.0000E+00  0.0000E+00  0.0000E+00  0.0000E+00  0.0000E+00  0.0000E+00  0.0000E+00  0.2272E+02  0.1824E+01  0.0000E+00  0.0000E+00
REACH    1        0     6  0.1194E+00  0.5970E-02  0.5968E-02  0.1587E-05  0.0000E+00  0.1902E+00  0.1902E+00  0.1713E+01  0.4446E+00  0.4444E+00  0.9603E-01  0.9598E-01  0.1377E+01  0.1377E+01  0.0000E+00  0.5095E-03  0.0000E+00  0.0000E+00  0.1811E-01  0.1816E-01  0.5620E-02  0.5547E-02  0.4022E+02  0.4014E+02  0.1097E+03  0.9076E+02  0.0000E+00  0.0000E+00  0.0000E+00  0.0000E+00  0.0000E+00  0.0000E+00  0.0000E+00  0.0000E+00  0.0000E+00  0.0000E+00  0.0000E+00  0.0000E+00  0.0000E+00  0.0000E+00  0.0000E+00  0.0000E+00  0.0000E+00  0.1822E+01  0.1141E+00  0.0000E+00  0.0000E+00
REACH    2        0     6  0.1067E+00  0.5249E-02  0.5249E-02  0.3462E-06  0.0000E+00  0.2066E+00  0.2066E+00  0.2016E+01  0.3784E+00  0.3783E+00  0.8180E-01  0.8179E-01  0.1054E+01  0.1054E+01  0.0000E+00  0.1170E-03  0.0000E+00  0.0000E+00  0.3263E-01  0.3265E-01  0.4674E-02  0.4654E-02  0.4286E+02  0.4283E+02  0.9632E+02  0.7694E+02  0.0000E+00  0.0000E+00  0.0000E+00  0.0000E+00  0.0000E+00  0.0000E+00  0.0000E+00  0.0000E+00  0.0000E+00  0.0000E+00  0.0000E+00  0.0000E+00  0.0000E+00  0.0000E+00  0.0000E+00  0.0000E+00  0.0000E+00  0.1432E+01  0.1144E+00  0.0000E+00  0.0000E+00
REACH    3        0     6  0.6245E+00  0.3103E-01  0.3099E-01  0.3976E-04  0.0000E+00  0.8693E+01  0.8693E+01  0.3315E+02  0.2701E+01  0.2697E+01  0.5903E+00  0.5891E+00  0.5804E+01  0.5797E+01  0.0000E+00  0.1658E-01  0.0000E+00  0.0000E+00  0.6493E-01  0.6615E-01  0.3334E-01  0.3196E-01  0.1462E+04  0.1447E+04  0.5441E+03  0.2581E+03  0.0000E+00  0.0000E+00  0.0000E+00  0.0000E+00  0.0000E+00  0.0000E+00  0.0000E+00  0.0000E+00  0.0000E+00  0.0000E+00  0.0000E+00  0.0000E+00  0.0000E+00  0.0000E+00  0.0000E+00  0.0000E+00  0.0000E+00  0.8511E+01  0.6553E+00  0.0000E+00  0.0000E+00
REACH    4        0     6  0.1189E+01  0.5903E-01  0.5899E-01  0.4255E-04  0.0000E+00  0.3598E+02  0.4596E+02  0.1383E+03  0.4881E+01  0.4877E+01  0.1064E+01  0.1063E+01  0.1159E+02  0.1158E+02  0.1709E-01  0.3523E-01  0.0000E+00  0.1188E-03  0.1960E+00  0.1980E+00  0.5972E-01  0.5832E-01  0.5867E+04  0.5828E+04  0.7386E+03  0.4079E+03  0.0000E+00  0.0000E+00  0.0000E+00  0.0000E+00  0.0000E+00  0.0000E+00  0.0000E+00  0.0000E+00  0.0000E+00  0.0000E+00  0.0000E+00  0.0000E+00  0.0000E+00  0.0000E+00  0.0000E+00  0.0000E+00  0.0000E+00  0.1649E+02  0.1261E+01  0.0000E+00  0.0000E+00
REACH    5        0     6  0.1468E+01  0.7227E-01  0.7224E-01  0.3042E-04  0.0000E+00  0.4641E+02  0.2259E+02  0.7340E+02  0.5711E+01  0.5704E+01  0.1243E+01  0.1240E+01  0.1393E+02  0.1392E+02  0.3535E-01  0.5005E-01  0.1188E-03  0.2772E-03  0.3377E+00  0.3403E+00  0.6880E-01  0.6700E-01  0.5921E+04  0.5863E+04  0.6380E+03  0.5053E+03  0.0000E+00  0.0000E+00  0.0000E+00  0.0000E+00  0.0000E+00  0.0000E+00  0.0000E+00  0.0000E+00  0.0000E+00  0.0000E+00  0.0000E+00  0.0000E+00  0.0000E+00  0.0000E+00  0.0000E+00  0.0000E+00  0.0000E+00  0.1968E+02  0.1581E+01  0.0000E+00  0.0000E+00
REACH    1        0     7  0.1194E+00  0.2785E-01  0.2785E-01  0.1535E-05  0.0000E+00  0.1115E+02  0.1115E+02  0.1852E+02  0.2380E+02  0.2380E+02  0.5151E+01  0.5150E+01  0.3413E+01  0.3413E+01  0.0000E+00  0.2997E-02  0.0000E+00  0.0000E+00  0.2425E+00  0.2434E+00  0.6884E+00  0.6849E+00  0.3643E+04  0.3639E+04  0.2074E+03  0.1174E+03  0.0000E+00  0.0000E+00  0.0000E+00  0.0000E+00  0.0000E+00  0.0000E+00  0.0000E+00  0.0000E+00  0.0000E+00  0.0000E+00  0.0000E+00  0.0000E+00  0.0000E+00  0.0000E+00  0.0000E+00  0.0000E+00  0.0000E+00  0.2721E+02  0.5393E+01  0.0000E+00  0.0000E+00
REACH    2        0     7  0.1067E+00  0.2504E-01  0.2504E-01  0.3837E-06  0.0000E+00  0.1224E+02  0.1224E+02  0.2255E+02  0.2044E+02  0.2044E+02  0.4432E+01  0.4431E+01  0.2696E+01  0.2696E+01  0.0000E+00  0.8005E-03  0.0000E+00  0.0000E+00  0.2928E+00  0.2930E+00  0.5862E+00  0.5854E+00  0.3980E+04  0.3978E+04  0.2348E+03  0.1042E+03  0.0000E+00  0.0000E+00  0.0000E+00  0.0000E+00  0.0000E+00  0.0000E+00  0.0000E+00  0.0000E+00  0.0000E+00  0.0000E+00  0.0000E+00  0.0000E+00  0.0000E+00  0.0000E+00  0.0000E+00  0.0000E+00  0.0000E+00  0.2313E+02  0.4724E+01  0.0000E+00  0.0000E+00
REACH    3        0     7  0.6245E+00  0.1468E+00  0.1468E+00  0.4229E-04  0.0000E+00  0.1766E+03  0.1766E+03  0.7590E+02  0.1361E+03  0.1360E+03  0.2980E+02  0.2976E+02  0.1779E+02  0.1778E+02  0.0000E+00  0.1141E+00  0.0000E+00  0.0000E+00  0.1064E+01  0.1100E+01  0.3924E+01  0.3836E+01  0.4794E+05  0.4760E+05  0.1094E+04  0.5526E+03  0.0000E+00  0.0000E+00  0.0000E+00  0.0000E+00  0.0000E+00  0.0000E+00  0.0000E+00  0.0000E+00  0.0000E+00  0.0000E+00  0.0000E+00  0.0000E+00  0.0000E+00  0.0000E+00  0.0000E+00  0.0000E+00  0.0000E+00  0.1539E+03  0.3086E+02  0.0000E+00  0.0000E+00
REACH    4        0     7  0.1189E+01  0.2792E+00  0.2791E+00  0.4199E-04  0.0000E+00  0.5084E+03  0.3249E+03  0.1559E+03  0.2500E+03  0.2499E+03  0.5452E+02  0.5447E+02  0.3255E+02  0.3254E+02  0.1171E+00  0.2563E+00  0.0000E+00  0.3741E-03  0.2378E+01  0.2423E+01  0.7109E+01  0.7021E+01  0.1199E+06  0.1193E+06  0.1598E+04  0.1021E+04  0.0000E+00  0.0000E+00  0.0000E+00  0.0000E+00  0.0000E+00  0.0000E+00  0.0000E+00  0.0000E+00  0.0000E+00  0.0000E+00  0.0000E+00  0.0000E+00  0.0000E+00  0.0000E+00  0.0000E+00  0.0000E+00  0.0000E+00  0.2827E+03  0.5689E+02  0.0000E+00  0.0000E+00
REACH    5        0     7  0.1468E+01  0.3444E+00  0.3444E+00  0.3207E-04  0.0000E+00  0.3512E+03  0.1954E+03  0.7566E+02  0.2948E+03  0.2947E+03  0.6421E+02  0.6416E+02  0.3855E+02  0.3854E+02  0.2571E+00  0.4164E+00  0.3741E-03  0.7687E-03  0.3481E+01  0.3535E+01  0.8312E+01  0.8239E+01  0.1278E+06  0.1272E+06  0.1632E+04  0.1261E+04  0.0000E+00  0.0000E+00  0.0000E+00  0.0000E+00  0.0000E+00  0.0000E+00  0.0000E+00  0.0000E+00  0.0000E+00  0.0000E+00  0.0000E+00  0.0000E+00  0.0000E+00  0.0000E+00  0.0000E+00  0.0000E+00  0.0000E+00  0.3336E+03  0.6769E+02  0.0000E+00  0.0000E+00
REACH    1        0     8  0.1194E+00  0.3498E-02  0.3497E-02  0.1128E-05  0.0000E+00  0.1552E+00  0.1552E+00  0.3077E+01  0.3126E+00  0.3125E+00  0.6766E-01  0.6763E-01  0.8541E+00  0.8539E+00  0.0000E+00  0.4493E-03  0.0000E+00  0.0000E+00  0.2009E-02  0.2050E-02  0.3093E-03  0.3049E-03  0.9001E+01  0.8988E+01  0.7612E+02  0.6677E+02  0.0000E+00  0.0000E+00  0.0000E+00  0.0000E+00  0.0000E+00  0.0000E+00  0.0000E+00  0.0000E+00  0.0000E+00  0.0000E+00  0.0000E+00  0.0000E+00  0.0000E+00  0.0000E+00  0.0000E+00  0.0000E+00  0.0000E+00  0.1167E+01  0.6968E-01  0.0000E+00  0.0000E+00
REACH    2        0     8  0.1067E+00  0.2962E-02  0.2962E-02  0.2857E-06  0.0000E+00  0.1693E+00  0.1693E+00  0.3676E+01  0.2641E+00  0.2640E+00  0.5728E-01  0.5727E-01  0.6960E+00  0.6960E+00  0.0000E+00  0.9621E-04  0.0000E+00  0.0000E+00  0.8674E-02  0.8682E-02  0.3091E-03  0.3075E-03  0.9570E+01  0.9566E+01  0.6451E+02  0.5490E+02  0.0000E+00  0.0000E+00  0.0000E+00  0.0000E+00  0.0000E+00  0.0000E+00  0.0000E+00  0.0000E+00  0.0000E+00  0.0000E+00  0.0000E+00  0.0000E+00  0.0000E+00  0.0000E+00  0.0000E+00  0.0000E+00  0.0000E+00  0.9601E+00  0.6595E-01  0.0000E+00  0.0000E+00
REACH    3        0     8  0.6245E+00  0.1825E-01  0.1821E-01  0.3610E-04  0.0000E+00  0.5125E+01  0.5125E+01  0.2688E+02  0.1916E+01  0.1913E+01  0.4213E+00  0.4203E+00  0.4551E+01  0.4545E+01  0.0000E+00  0.1598E-01  0.0000E+00  0.0000E+00  0.9488E-02  0.1048E-01  0.2440E-02  0.2228E-02  0.4725E+03  0.4667E+03  0.3917E+03  0.2289E+03  0.0000E+00  0.0000E+00  0.0000E+00  0.0000E+00  0.0000E+00  0.0000E+00  0.0000E+00  0.0000E+00  0.0000E+00  0.0000E+00  0.0000E+00  0.0000E+00  0.0000E+00  0.0000E+00  0.0000E+00  0.0000E+00  0.0000E+00  0.6475E+01  0.4308E+00  0.0000E+00  0.0000E+00
REACH    4        0     8  0.1189E+01  0.3421E-01  0.3417E-01  0.3911E-04  0.0000E+00  0.1969E+02  0.2118E+02  0.1008E+03  0.3374E+01  0.3371E+01  0.7376E+00  0.7364E+00  0.8492E+01  0.8486E+01  0.1643E-01  0.3395E-01  0.0000E+00  0.2014E-03  0.4226E-01  0.4388E-01  0.3916E-02  0.3696E-02  0.1996E+04  0.1978E+04  0.5647E+03  0.4084E+03  0.0000E+00  0.0000E+00  0.0000E+00  0.0000E+00  0.0000E+00  0.0000E+00  0.0000E+00  0.0000E+00  0.0000E+00  0.0000E+00  0.0000E+00  0.0000E+00  0.0000E+00  0.0000E+00  0.0000E+00  0.0000E+00  0.0000E+00  0.1189E+02  0.7803E+00  0.0000E+00  0.0000E+00
REACH    5        0     8  0.1468E+01  0.4148E-01  0.4146E-01  0.2312E-04  0.0000E+00  0.2155E+02  0.1432E+02  0.6220E+02  0.3954E+01  0.3951E+01  0.8630E+00  0.8619E+00  0.1004E+02  0.1003E+02  0.3405E-01  0.4537E-01  0.2014E-03  0.4542E-03  0.9192E-01  0.9351E-01  0.4601E-02  0.4453E-02  0.1999E+04  0.1984E+04  0.5587E+03  0.4951E+03  0.0000E+00  0.0000E+00  0.0000E+00  0.0000E+00  0.0000E+00  0.0000E+00  0.0000E+00  0.0000E+00  0.0000E+00  0.0000E+00  0.0000E+00  0.0000E+00  0.0000E+00  0.0000E+00  0.0000E+00  0.0000E+00  0.0000E+00  0.1403E+02  0.9554E+00  0.0000E+00  0.0000E+00
REACH    1        0     9  0.1194E+00  0.2523E-02  0.2522E-02  0.1174E-05  0.0000E+00  0.1190E+01  0.1190E+01  0.1912E+02  0.2391E+01  0.2390E+01  0.5179E+00  0.5178E+00  0.7708E+00  0.7706E+00  0.0000E+00  0.7592E-03  0.0000E+00  0.0000E+00  0.4534E-02  0.4677E-02  0.1231E-01  0.1215E-01  0.1593E+03  0.1591E+03  0.4520E+02  0.2681E+02  0.0000E+00  0.0000E+00  0.0000E+00  0.0000E+00  0.0000E+00  0.0000E+00  0.0000E+00  0.0000E+00  0.0000E+00  0.0000E+00  0.0000E+00  0.0000E+00  0.0000E+00  0.0000E+00  0.0000E+00  0.0000E+00  0.0000E+00  0.3162E+01  0.5225E+00  0.0000E+00  0.0000E+00
REACH    2        0     9  0.1067E+00  0.2316E-02  0.2316E-02  0.2767E-06  0.0000E+00  0.1250E+01  0.1250E+01  0.2110E+02  0.1943E+01  0.1943E+01  0.4222E+00  0.4221E+00  0.5488E+00  0.5487E+00  0.0000E+00  0.2369E-03  0.0000E+00  0.0000E+00  0.1194E-01  0.1200E-01  0.8670E-02  0.8620E-02  0.1555E+03  0.1554E+03  0.4302E+02  0.2391E+02  0.0000E+00  0.0000E+00  0.0000E+00  0.0000E+00  0.0000E+00  0.0000E+00  0.0000E+00  0.0000E+00  0.0000E+00  0.0000E+00  0.0000E+00  0.0000E+00  0.0000E+00  0.0000E+00  0.0000E+00  0.0000E+00  0.0000E+00  0.2492E+01  0.4341E+00  0.0000E+00  0.0000E+00
REACH    3        0     9  0.6245E+00  0.1405E-01  0.1401E-01  0.3763E-04  0.0000E+00  0.1675E+02  0.1675E+02  0.5510E+02  0.1304E+02  0.1302E+02  0.2871E+01  0.2865E+01  0.3736E+01  0.3728E+01  0.0000E+00  0.2744E-01  0.0000E+00  0.0000E+00  0.2250E-01  0.2800E-01  0.6770E-01  0.6279E-01  0.2159E+04  0.2135E+04  0.2496E+03  0.1141E+03  0.0000E+00  0.0000E+00  0.0000E+00  0.0000E+00  0.0000E+00  0.0000E+00  0.0000E+00  0.0000E+00  0.0000E+00  0.0000E+00  0.0000E+00  0.0000E+00  0.0000E+00  0.0000E+00  0.0000E+00  0.0000E+00  0.0000E+00  0.1678E+02  0.2893E+01  0.0000E+00  0.0000E+00
REACH    4        0     9  0.1189E+01  0.2630E-01  0.2626E-01  0.4046E-04  0.0000E+00  0.4470E+02  0.1763E+02  0.8291E+02  0.2382E+02  0.2380E+02  0.5215E+01  0.5208E+01  0.6787E+01  0.6779E+01  0.2820E-01  0.5776E-01  0.0000E+00  0.6625E-03  0.7298E-01  0.7946E-01  0.1128E+00  0.1083E+00  0.5873E+04  0.5832E+04  0.3186E+03  0.2074E+03  0.0000E+00  0.0000E+00  0.0000E+00  0.0000E+00  0.0000E+00  0.0000E+00  0.0000E+00  0.0000E+00  0.0000E+00  0.0000E+00  0.0000E+00  0.0000E+00  0.0000E+00  0.0000E+00  0.0000E+00  0.0000E+00  0.0000E+00  0.3064E+02  0.5288E+01  0.0000E+00  0.0000E+00
REACH    5        0     9  0.1468E+01  0.3213E-01  0.3210E-01  0.2376E-04  0.0000E+00  0.2032E+02  0.1156E+02  0.4631E+02  0.2809E+02  0.2807E+02  0.6141E+01  0.6133E+01  0.8006E+01  0.8002E+01  0.5799E-01  0.8345E-01  0.6625E-03  0.1170E-02  0.1356E+00  0.1427E+00  0.1278E+00  0.1251E+00  0.6168E+04  0.6127E+04  0.2991E+03  0.2486E+03  0.0000E+00  0.0000E+00  0.0000E+00  0.0000E+00  0.0000E+00  0.0000E+00  0.0000E+00  0.0000E+00  0.0000E+00  0.0000E+00  0.0000E+00  0.0000E+00  0.0000E+00  0.0000E+00  0.0000E+00  0.0000E+00  0.0000E+00  0.3616E+02  0.6276E+01  0.0000E+00  0.0000E+00
REACH    1        0    10  0.1194E+00  0.2120E-02  0.2118E-02  0.1414E-05  0.0000E+00  0.1741E+01  0.1741E+01  0.2423E+02  0.3861E+01  0.3860E+01  0.8368E+00  0.8366E+00  0.6910E+00  0.6908E+00  0.0000E+00  0.9199E-03  0.0000E+00  0.0000E+00  0.4726E-02  0.4928E-02  0.1633E-01  0.1613E-01  0.2149E+03  0.2146E+03  0.3772E+02  0.1595E+02  0.0000E+00  0.0000E+00  0.0000E+00  0.0000E+00  0.0000E+00  0.0000E+00  0.0000E+00  0.0000E+00  0.0000E+00  0.0000E+00  0.0000E+00  0.0000E+00  0.0000E+00  0.0000E+00  0.0000E+00  0.0000E+00  0.0000E+00  0.4552E+01  0.8415E+00  0.0000E+00  0.0000E+00
REACH    2        0    10  0.1067E+00  0.1929E-02  0.1929E-02  0.3442E-06  0.0000E+00  0.1795E+01  0.1795E+01  0.2685E+02  0.2931E+01  0.2931E+01  0.6374E+00  0.6373E+00  0.4748E+00  0.4747E+00  0.0000E+00  0.2997E-03  0.0000E+00  0.0000E+00  0.1037E-01  0.1045E-01  0.1034E-01  0.1028E-01  0.1927E+03  0.1925E+03  0.3612E+02  0.1411E+02  0.0000E+00  0.0000E+00  0.0000E+00  0.0000E+00  0.0000E+00  0.0000E+00  0.0000E+00  0.0000E+00  0.0000E+00  0.0000E+00  0.0000E+00  0.0000E+00  0.0000E+00  0.0000E+00  0.0000E+00  0.0000E+00  0.0000E+00  0.3406E+01  0.6477E+00  0.0000E+00  0.0000E+00
REACH    3        0    10  0.6245E+00  0.1174E-01  0.1170E-01  0.3955E-04  0.0000E+00  0.2027E+02  0.2027E+02  0.5366E+02  0.1865E+02  0.1862E+02  0.4113E+01  0.4104E+01  0.3284E+01  0.3276E+01  0.0000E+00  0.2765E-01  0.0000E+00  0.0000E+00  0.2224E-01  0.2961E-01  0.8292E-01  0.7689E-01  0.2228E+04  0.2205E+04  0.2086E+03  0.8424E+02  0.0000E+00  0.0000E+00  0.0000E+00  0.0000E+00  0.0000E+00  0.0000E+00  0.0000E+00  0.0000E+00  0.0000E+00  0.0000E+00  0.0000E+00  0.0000E+00  0.0000E+00  0.0000E+00  0.0000E+00  0.0000E+00  0.0000E+00  0.2192E+02  0.4134E+01  0.0000E+00  0.0000E+00
REACH    4        0    10  0.1189E+01  0.2196E-01  0.2192E-01  0.4038E-04  0.0000E+00  0.4612E+02  0.1646E+02  0.5658E+02  0.3432E+02  0.3429E+02  0.7525E+01  0.7515E+01  0.5974E+01  0.5966E+01  0.2857E-01  0.5873E-01  0.0000E+00  0.4232E-03  0.6951E-01  0.7806E-01  0.1357E+00  0.1302E+00  0.5408E+04  0.5372E+04  0.2492E+03  0.1490E+03  0.0000E+00  0.0000E+00  0.0000E+00  0.0000E+00  0.0000E+00  0.0000E+00  0.0000E+00  0.0000E+00  0.0000E+00  0.0000E+00  0.0000E+00  0.0000E+00  0.0000E+00  0.0000E+00  0.0000E+00  0.0000E+00  0.0000E+00  0.4032E+02  0.7593E+01  0.0000E+00  0.0000E+00
REACH    5        0    10  0.1468E+01  0.2678E-01  0.2676E-01  0.2084E-04  0.0000E+00  0.2032E+02  0.1057E+02  0.3116E+02  0.4082E+02  0.4078E+02  0.8933E+01  0.8922E+01  0.7026E+01  0.7021E+01  0.5903E-01  0.8867E-01  0.4232E-03  0.7233E-03  0.1257E+00  0.1352E+00  0.1538E+00  0.1505E+00  0.5792E+04  0.5755E+04  0.2200E+03  0.1810E+03  0.0000E+00  0.0000E+00  0.0000E+00  0.0000E+00  0.0000E+00  0.0000E+00  0.0000E+00  0.0000E+00  0.0000E+00  0.0000E+00  0.0000E+00  0.0000E+00  0.0000E+00  0.0000E+00  0.0000E+00  0.0000E+00  0.0000E+00  0.4789E+02  0.9057E+01  0.0000E+00  0.0000E+00
REACH    1        0    11  0.1194E+00  0.1023E-01  0.1022E-01  0.1737E-05  0.0000E+00  0.1871E+02  0.1871E+02  0.1730E+03  0.3609E+02  0.3608E+02  0.7827E+01  0.7823E+01  0.3705E+01  0.3705E+01  0.0000E+00  0.7501E-02  0.0000E+00  0.0000E+00  0.2488E-01  0.2745E-01  0.3077E+00  0.3031E+00  0.2872E+04  0.2866E+04  0.1682E+03  0.8492E+02  0.0000E+00  0.0000E+00  0.0000E+00  0.0000E+00  0.0000E+00  0.0000E+00  0.0000E+00  0.0000E+00  0.0000E+00  0.0000E+00  0.0000E+00  0.0000E+00  0.0000E+00  0.0000E+00  0.0000E+00  0.0000E+00  0.0000E+00  0.3979E+02  0.7850E+01  0.0000E+00  0.0000E+00
REACH    2        0    11  0.1067E+00  0.9328E-02  0.9327E-02  0.4096E-06  0.0000E+00  0.1916E+02  0.1916E+02  0.1869E+03  0.2612E+02  0.2611E+02  0.5684E+01  0.5683E+01  0.2965E+01  0.2964E+01  0.0000E+00  0.1888E-02  0.0000E+00  0.0000E+00  0.5634E-01  0.5699E-01  0.1800E+00  0.1792E+00  0.2443E+04  0.2441E+04  0.1645E+03  0.7683E+02  0.0000E+00  0.0000E+00  0.0000E+00  0.0000E+00  0.0000E+00  0.0000E+00  0.0000E+00  0.0000E+00  0.0000E+00  0.0000E+00  0.0000E+00  0.0000E+00  0.0000E+00  0.0000E+00  0.0000E+00  0.0000E+00  0.0000E+00  0.2908E+02  0.5740E+01  0.0000E+00  0.0000E+00
REACH    3        0    11  0.6245E+00  0.5535E-01  0.5531E-01  0.4017E-04  0.0000E+00  0.1949E+03  0.1949E+03  0.3445E+03  0.1692E+03  0.1691E+03  0.3742E+02  0.3735E+02  0.1952E+02  0.1951E+02  0.0000E+00  0.1574E+00  0.0000E+00  0.0000E+00  0.1057E+00  0.1587E+00  0.1341E+01  0.1280E+01  0.2406E+05  0.2386E+05  0.9202E+03  0.3840E+03  0.0000E+00  0.0000E+00  0.0000E+00  0.0000E+00  0.0000E+00  0.0000E+00  0.0000E+00  0.0000E+00  0.0000E+00  0.0000E+00  0.0000E+00  0.0000E+00  0.0000E+00  0.0000E+00  0.0000E+00  0.0000E+00  0.0000E+00  0.1887E+03  0.3751E+02  0.0000E+00  0.0000E+00
REACH    4        0    11  0.1189E+01  0.1046E+00  0.1046E+00  0.4252E-04  0.0000E+00  0.3837E+03  0.8962E+02  0.1960E+03  0.3099E+03  0.3097E+03  0.6807E+02  0.6800E+02  0.3562E+02  0.3561E+02  0.1649E+00  0.3538E+00  0.0000E+00  0.1378E-03  0.3748E+00  0.4393E+00  0.2307E+01  0.2249E+01  0.4838E+05  0.4811E+05  0.1143E+04  0.6288E+03  0.0000E+00  0.0000E+00  0.0000E+00  0.0000E+00  0.0000E+00  0.0000E+00  0.0000E+00  0.0000E+00  0.0000E+00  0.0000E+00  0.0000E+00  0.0000E+00  0.0000E+00  0.0000E+00  0.0000E+00  0.0000E+00  0.0000E+00  0.3457E+03  0.6844E+02  0.0000E+00  0.0000E+00
REACH    5        0    11  0.1468E+01  0.1286E+00  0.1286E+00  0.3389E-04  0.0000E+00  0.1309E+03  0.4536E+02  0.9957E+02  0.3679E+03  0.3674E+03  0.8066E+02  0.8051E+02  0.4219E+02  0.4218E+02  0.3557E+00  0.6876E+00  0.1378E-03  0.4860E-03  0.7016E+00  0.8199E+00  0.2654E+01  0.2588E+01  0.5342E+05  0.5296E+05  0.9790E+03  0.7851E+03  0.0000E+00  0.0000E+00  0.0000E+00  0.0000E+00  0.0000E+00  0.0000E+00  0.0000E+00  0.0000E+00  0.0000E+00  0.0000E+00  0.0000E+00  0.0000E+00  0.0000E+00  0.0000E+00  0.0000E+00  0.0000E+00  0.0000E+00  0.4103E+03  0.8133E+02  0.0000E+00  0.0000E+00
REACH    1        0    12  0.1194E+00  0.1516E-01  0.1516E-01  0.2076E-05  0.0000E+00  0.3872E+02  0.3872E+02  0.2989E+03  0.9234E+02  0.9232E+02  0.2003E+02  0.2003E+02  0.3785E+01  0.3784E+01  0.0000E+00  0.1522E-01  0.0000E+00  0.0000E+00  0.5354E-01  0.5888E-01  0.1154E+01  0.1141E+01  0.7975E+04  0.7962E+04  0.2226E+03  0.1118E+03  0.0000E+00  0.0000E+00  0.0000E+00  0.0000E+00  0.0000E+00  0.0000E+00  0.0000E+00  0.0000E+00  0.0000E+00  0.0000E+00  0.0000E+00  0.0000E+00  0.0000E+00  0.0000E+00  0.0000E+00  0.0000E+00  0.0000E+00  0.9612E+02  0.2008E+02  0.0000E+00  0.0000E+00
REACH    2        0    12  0.1067E+00  0.1356E-01  0.1356E-01  0.5977E-06  0.0000E+00  0.4244E+02  0.4244E+02  0.3516E+03  0.7000E+02  0.6999E+02  0.1524E+02  0.1524E+02  0.2481E+01  0.2481E+01  0.0000E+00  0.4322E-02  0.0000E+00  0.0000E+00  0.9692E-01  0.9844E-01  0.8373E+00  0.8343E+00  0.7781E+04  0.7776E+04  0.2167E+03  0.9895E+02  0.0000E+00  0.0000E+00  0.0000E+00  0.0000E+00  0.0000E+00  0.0000E+00  0.0000E+00  0.0000E+00  0.0000E+00  0.0000E+00  0.0000E+00  0.0000E+00  0.0000E+00  0.0000E+00  0.0000E+00  0.0000E+00  0.0000E+00  0.7248E+02  0.1534E+02  0.0000E+00  0.0000E+00
REACH    3        0    12  0.6245E+00  0.8007E-01  0.8003E-01  0.4789E-04  0.0000E+00  0.4209E+03  0.4209E+03  0.6251E+03  0.4471E+03  0.4465E+03  0.9908E+02  0.9888E+02  0.1612E+02  0.1611E+02  0.0000E+00  0.4497E+00  0.0000E+00  0.0000E+00  0.2212E+00  0.3817E+00  0.5848E+01  0.5582E+01  0.7215E+05  0.7138E+05  0.1174E+04  0.5020E+03  0.0000E+00  0.0000E+00  0.0000E+00  0.0000E+00  0.0000E+00  0.0000E+00  0.0000E+00  0.0000E+00  0.0000E+00  0.0000E+00  0.0000E+00  0.0000E+00  0.0000E+00  0.0000E+00  0.0000E+00  0.0000E+00  0.0000E+00  0.4631E+03  0.9927E+02  0.0000E+00  0.0000E+00
REACH    4        0    12  0.1189E+01  0.1519E+00  0.1519E+00  0.5032E-04  0.0000E+00  0.7676E+03  0.1368E+03  0.2046E+03  0.8100E+03  0.8093E+03  0.1782E+03  0.1780E+03  0.3057E+02  0.3055E+02  0.4649E+00  0.1035E+01  0.0000E+00  0.7311E-03  0.7693E+00  0.9729E+00  0.9973E+01  0.9712E+01  0.1319E+06  0.1309E+06  0.1492E+04  0.8089E+03  0.0000E+00  0.0000E+00  0.0000E+00  0.0000E+00  0.0000E+00  0.0000E+00  0.0000E+00  0.0000E+00  0.0000E+00  0.0000E+00  0.0000E+00  0.0000E+00  0.0000E+00  0.0000E+00  0.0000E+00  0.0000E+00  0.0000E+00  0.8409E+03  0.1789E+03  0.0000E+00  0.0000E+00
REACH    5        0    12  0.1468E+01  0.1871E+00  0.1870E+00  0.4504E-04  0.0000E+00  0.2283E+03  0.6587E+02  0.9450E+02  0.9657E+03  0.9646E+03  0.2120E+03  0.2117E+03  0.3608E+02  0.3607E+02  0.1040E+01  0.1897E+01  0.7311E-03  0.1788E-02  0.1400E+01  0.1709E+01  0.1159E+02  0.1134E+02  0.1478E+06  0.1466E+06  0.1285E+04  0.1029E+04  0.0000E+00  0.0000E+00  0.0000E+00  0.0000E+00  0.0000E+00  0.0000E+00  0.0000E+00  0.0000E+00  0.0000E+00  0.0000E+00  0.0000E+00  0.0000E+00  0.0000E+00  0.0000E+00  0.0000E+00  0.0000E+00  0.0000E+00  0.1003E+04  0.2134E+03  0.0000E+00  0.0000E+00
REACH    1        0  2014  0.1194E+00  0.1047E-01  0.1047E-01  0.1636E-05  0.0000E+00  0.1692E+03  0.1692E+03  0.1053E+03  0.4831E+03  0.4830E+03  0.1057E+03  0.1056E+03  0.2206E+02  0.2206E+02  0.0000E+00  0.8194E-01  0.0000E+00  0.0000E+00  0.5387E+00  0.5668E+00  0.5806E+01  0.5744E+01  0.2915E+05  0.2910E+05  0.1903E+04  0.1295E+04  0.0000E+00  0.0000E+00  0.0000E+00  0.0000E+00  0.0000E+00  0.0000E+00  0.0000E+00  0.0000E+00  0.0000E+00  0.0000E+00  0.0000E+00  0.0000E+00  0.0000E+00  0.0000E+00  0.0000E+00  0.0000E+00  0.0000E+00  0.5051E+03  0.1062E+03  0.0000E+00  0.0000E+00
REACH    2        0  2014  0.1067E+00  0.9442E-02  0.9442E-02  0.4609E-06  0.0000E+00  0.1883E+03  0.1883E+03  0.1271E+03  0.4008E+03  0.4007E+03  0.8792E+02  0.8790E+02  0.1623E+02  0.1623E+02  0.0000E+00  0.2550E-01  0.0000E+00  0.0000E+00  0.8888E+00  0.8976E+00  0.4548E+01  0.4533E+01  0.2889E+05  0.2887E+05  0.1814E+04  0.1142E+04  0.0000E+00  0.0000E+00  0.0000E+00  0.0000E+00  0.0000E+00  0.0000E+00  0.0000E+00  0.0000E+00  0.0000E+00  0.0000E+00  0.0000E+00  0.0000E+00  0.0000E+00  0.0000E+00  0.0000E+00  0.0000E+00  0.0000E+00  0.4170E+03  0.8880E+02  0.0000E+00  0.0000E+00
REACH    3        0  2014  0.6245E+00  0.5572E-01  0.5568E-01  0.4199E-04  0.0000E+00  0.2059E+04  0.2059E+04  0.2560E+03  0.3210E+04  0.3206E+04  0.7169E+03  0.7156E+03  0.1038E+03  0.1037E+03  0.0000E+00  0.3214E+01  0.0000E+00  0.0000E+00  0.2395E+01  0.3528E+01  0.4056E+02  0.3882E+02  0.3019E+06  0.2990E+06  0.9781E+04  0.4539E+04  0.0000E+00  0.0000E+00  0.0000E+00  0.0000E+00  0.0000E+00  0.0000E+00  0.0000E+00  0.0000E+00  0.0000E+00  0.0000E+00  0.0000E+00  0.0000E+00  0.0000E+00  0.0000E+00  0.0000E+00  0.0000E+00  0.0000E+00  0.3312E+04  0.7191E+03  0.0000E+00  0.0000E+00
REACH    4        0  2014  0.1189E+01  0.1057E+00  0.1056E+00  0.4424E-04  0.0000E+00  0.4051E+04  0.1186E+04  0.1555E+03  0.5487E+04  0.5482E+04  0.1217E+04  0.1215E+04  0.1983E+03  0.1982E+03  0.3296E+01  0.7079E+01  0.0000E+00  0.6741E-02  0.7196E+01  0.8533E+01  0.6650E+02  0.6489E+02  0.6066E+06  0.6027E+06  0.1316E+05  0.7829E+04  0.0000E+00  0.0000E+00  0.0000E+00  0.0000E+00  0.0000E+00  0.0000E+00  0.0000E+00  0.0000E+00  0.0000E+00  0.0000E+00  0.0000E+00  0.0000E+00  0.0000E+00  0.0000E+00  0.0000E+00  0.0000E+00  0.0000E+00  0.5687E+04  0.1224E+04  0.0000E+00  0.0000E+00
REACH    5        0  2014  0.1468E+01  0.1301E+00  0.1301E+00  0.3596E-04  0.0000E+00  0.1591E+04  0.6022E+03  0.7617E+02  0.6369E+04  0.6362E+04  0.1410E+04  0.1408E+04  0.2343E+03  0.2342E+03  0.7104E+01  0.1275E+02  0.6741E-02  0.1585E-01  0.1226E+02  0.1430E+02  0.7499E+02  0.7350E+02  0.6655E+06  0.6601E+06  0.1211E+05  0.9728E+04  0.0000E+00  0.0000E+00  0.0000E+00  0.0000E+00  0.0000E+00  0.0000E+00  0.0000E+00  0.0000E+00  0.0000E+00  0.0000E+00  0.0000E+00  0.0000E+00  0.0000E+00  0.0000E+00  0.0000E+00  0.0000E+00  0.0000E+00  0.6609E+04  0.1422E+04  0.0000E+00  0.0000E+00
REACH    1        0     1  0.1194E+00  0.2468E-01  0.2468E-01  0.2477E-05  0.0000E+00  0.1671E+03  0.1671E+03  0.9528E+03  0.4036E+03  0.4035E+03  0.8845E+02  0.8842E+02  0.5473E+01  0.5472E+01  0.0000E+00  0.6577E-01  0.0000E+00  0.0000E+00  0.1627E+00  0.1864E+00  0.6135E+01  0.6071E+01  0.2915E+05  0.2911E+05  0.3231E+03  0.1219E+03  0.0000E+00  0.0000E+00  0.0000E+00  0.0000E+00  0.0000E+00  0.0000E+00  0.0000E+00  0.0000E+00  0.0000E+00  0.0000E+00  0.0000E+00  0.0000E+00  0.0000E+00  0.0000E+00  0.0000E+00  0.0000E+00  0.0000E+00  0.4090E+03  0.8861E+02  0.0000E+00  0.0000E+00
REACH    2        0     1  0.1067E+00  0.2224E-01  0.2224E-01  0.9220E-06  0.0000E+00  0.1982E+03  0.1982E+03  0.1232E+04  0.3555E+03  0.3555E+03  0.7811E+02  0.7810E+02  0.4063E+01  0.4063E+01  0.0000E+00  0.2053E-01  0.0000E+00  0.0000E+00  0.2224E+00  0.2298E+00  0.5296E+01  0.5279E+01  0.3094E+05  0.3092E+05  0.3171E+03  0.1067E+03  0.0000E+00  0.0000E+00  0.0000E+00  0.0000E+00  0.0000E+00  0.0000E+00  0.0000E+00  0.0000E+00  0.0000E+00  0.0000E+00  0.0000E+00  0.0000E+00  0.0000E+00  0.0000E+00  0.0000E+00  0.0000E+00  0.0000E+00  0.3596E+03  0.7833E+02  0.0000E+00  0.0000E+00
REACH    3        0     1  0.6245E+00  0.1315E+00  0.1315E+00  0.5769E-04  0.0000E+00  0.2029E+04  0.2029E+04  0.2225E+04  0.2691E+04  0.2687E+04  0.5946E+03  0.5932E+03  0.2579E+02  0.2574E+02  0.0000E+00  0.3258E+01  0.0000E+00  0.0000E+00  0.7902E+00  0.1977E+01  0.4349E+02  0.4136E+02  0.2978E+06  0.2942E+06  0.1666E+04  0.6106E+03  0.0000E+00  0.0000E+00  0.0000E+00  0.0000E+00  0.0000E+00  0.0000E+00  0.0000E+00  0.0000E+00  0.0000E+00  0.0000E+00  0.0000E+00  0.0000E+00  0.0000E+00  0.0000E+00  0.0000E+00  0.0000E+00  0.0000E+00  0.2716E+04  0.5952E+03  0.0000E+00  0.0000E+00
[...]
REACH    3        0     8  0.6245E+00  0.1991E-01  0.1986E-01  0.5068E-04  0.0000E+00  0.8516E+01  0.8516E+01  0.4075E+02  0.7077E+01  0.7064E+01  0.1535E+01  0.1531E+01  0.6398E+01  0.6381E+01  0.0000E+00  0.2298E-01  0.0000E+00  0.0000E+00  0.2828E-01  0.3172E-01  0.1383E-01  0.1241E-01  0.9685E+03  0.9559E+03  0.3969E+03  0.1746E+03  0.0000E+00  0.0000E+00  0.0000E+00  0.0000E+00  0.0000E+00  0.0000E+00  0.0000E+00  0.0000E+00  0.0000E+00  0.0000E+00  0.0000E+00  0.0000E+00  0.0000E+00  0.0000E+00  0.0000E+00  0.0000E+00  0.0000E+00  0.1347E+02  0.1563E+01  0.0000E+00  0.0000E+00
REACH    4        0     8  0.1189E+01  0.3754E-01  0.3748E-01  0.5496E-04  0.0000E+00  0.2963E+02  0.2445E+02  0.1065E+03  0.1249E+02  0.1248E+02  0.2711E+01  0.2706E+01  0.1184E+02  0.1182E+02  0.2355E-01  0.4822E-01  0.0000E+00  0.5605E-03  0.1040E+00  0.1082E+00  0.2387E-01  0.2243E-01  0.3788E+04  0.3757E+04  0.5037E+03  0.2807E+03  0.0000E+00  0.0000E+00  0.0000E+00  0.0000E+00  0.0000E+00  0.0000E+00  0.0000E+00  0.0000E+00  0.0000E+00  0.0000E+00  0.0000E+00  0.0000E+00  0.0000E+00  0.0000E+00  0.0000E+00  0.0000E+00  0.0000E+00  0.2435E+02  0.2814E+01  0.0000E+00  0.0000E+00
REACH    5        0     8  0.1468E+01  0.4608E-01  0.4605E-01  0.3270E-04  0.0000E+00  0.2532E+02  0.1625E+02  0.6003E+02  0.1439E+02  0.1438E+02  0.3121E+01  0.3116E+01  0.1398E+02  0.1397E+02  0.4834E-01  0.6716E-01  0.5605E-03  0.1025E-02  0.2001E+00  0.2045E+00  0.2668E-01  0.2581E-01  0.3826E+04  0.3797E+04  0.4373E+03  0.3537E+03  0.0000E+00  0.0000E+00  0.0000E+00  0.0000E+00  0.0000E+00  0.0000E+00  0.0000E+00  0.0000E+00  0.0000E+00  0.0000E+00  0.0000E+00  0.0000E+00  0.0000E+00  0.0000E+00  0.0000E+00  0.0000E+00  0.0000E+00  0.2842E+02  0.3321E+01  0.0000E+00  0.0000E+00
REACH    1        0     9  0.1194E+00  0.4071E-02  0.4070E-02  0.9909E-06  0.0000E+00  0.9792E+00  0.9792E+00  0.1372E+02  0.2789E+01  0.2789E+01  0.6045E+00  0.6043E+00  0.1469E+01  0.1469E+01  0.0000E+00  0.7421E-03  0.0000E+00  0.0000E+00  0.6551E-02  0.6688E-02  0.1060E-01  0.1049E-01  0.1106E+03  0.1105E+03  0.7693E+02  0.4879E+02  0.0000E+00  0.0000E+00  0.0000E+00  0.0000E+00  0.0000E+00  0.0000E+00  0.0000E+00  0.0000E+00  0.0000E+00  0.0000E+00  0.0000E+00  0.0000E+00  0.0000E+00  0.0000E+00  0.0000E+00  0.0000E+00  0.0000E+00  0.4259E+01  0.6110E+00  0.0000E+00  0.0000E+00
REACH    2        0     9  0.1067E+00  0.3760E-02  0.3759E-02  0.2523E-06  0.0000E+00  0.9830E+00  0.9830E+00  0.1372E+02  0.2398E+01  0.2397E+01  0.5204E+00  0.5204E+00  0.1215E+01  0.1215E+01  0.0000E+00  0.2322E-03  0.0000E+00  0.0000E+00  0.1909E-01  0.1914E-01  0.7096E-02  0.7063E-02  0.9822E+02  0.9816E+02  0.7370E+02  0.4517E+02  0.0000E+00  0.0000E+00  0.0000E+00  0.0000E+00  0.0000E+00  0.0000E+00  0.0000E+00  0.0000E+00  0.0000E+00  0.0000E+00  0.0000E+00  0.0000E+00  0.0000E+00  0.0000E+00  0.0000E+00  0.0000E+00  0.0000E+00  0.3613E+01  0.5395E+00  0.0000E+00  0.0000E+00
REACH    3        0     9  0.6245E+00  0.2251E-01  0.2248E-01  0.3226E-04  0.0000E+00  0.1448E+02  0.1448E+02  0.5282E+02  0.1934E+02  0.1932E+02  0.4198E+01  0.4189E+01  0.7640E+01  0.7633E+01  0.0000E+00  0.3358E-01  0.0000E+00  0.0000E+00  0.2862E-01  0.3591E-01  0.6072E-01  0.5702E-01  0.1580E+04  0.1563E+04  0.4309E+03  0.1692E+03  0.0000E+00  0.0000E+00  0.0000E+00  0.0000E+00  0.0000E+00  0.0000E+00  0.0000E+00  0.0000E+00  0.0000E+00  0.0000E+00  0.0000E+00  0.0000E+00  0.0000E+00  0.0000E+00  0.0000E+00  0.0000E+00  0.0000E+00  0.2698E+02  0.4225E+01  0.0000E+00  0.0000E+00
REACH    4        0     9  0.1189E+01  0.4235E-01  0.4231E-01  0.3440E-04  0.0000E+00  0.4186E+02  0.2802E+02  0.1272E+03  0.3414E+02  0.3411E+02  0.7410E+01  0.7401E+01  0.1416E+02  0.1415E+02  0.3432E-01  0.7081E-01  0.0000E+00  0.2614E-03  0.1080E+00  0.1165E+00  0.1035E+00  0.9998E-01  0.4795E+04  0.4759E+04  0.5223E+03  0.2841E+03  0.0000E+00  0.0000E+00  0.0000E+00  0.0000E+00  0.0000E+00  0.0000E+00  0.0000E+00  0.0000E+00  0.0000E+00  0.0000E+00  0.0000E+00  0.0000E+00  0.0000E+00  0.0000E+00  0.0000E+00  0.0000E+00  0.0000E+00  0.4834E+02  0.7517E+01  0.0000E+00  0.0000E+00
REACH    5        0     9  0.1468E+01  0.5187E-01  0.5184E-01  0.2294E-04  0.0000E+00  0.3014E+02  0.1444E+02  0.6789E+02  0.3935E+02  0.3930E+02  0.8538E+01  0.8520E+01  0.1686E+02  0.1685E+02  0.7104E-01  0.1202E+00  0.2614E-03  0.5804E-03  0.2077E+00  0.2229E+00  0.1159E+00  0.1123E+00  0.4972E+04  0.4924E+04  0.4453E+03  0.3439E+03  0.0000E+00  0.0000E+00  0.0000E+00  0.0000E+00  0.0000E+00  0.0000E+00  0.0000E+00  0.0000E+00  0.0000E+00  0.0000E+00  0.0000E+00  0.0000E+00  0.0000E+00  0.0000E+00  0.0000E+00  0.0000E+00  0.0000E+00  0.5627E+02  0.8743E+01  0.0000E+00  0.0000E+00
REACH    1        0    10  0.1194E+00  0.3133E-02  0.3132E-02  0.1385E-05  0.0000E+00  0.5369E+00  0.5369E+00  0.1738E+02  0.1221E+01  0.1221E+01  0.2650E+00  0.2648E+00  0.1025E+01  0.1024E+01  0.0000E+00  0.6712E-03  0.0000E+00  0.0000E+00  0.2099E-02  0.2199E-02  0.8259E-03  0.8047E-03  0.2557E+02  0.2553E+02  0.6505E+02  0.4639E+02  0.0000E+00  0.0000E+00  0.0000E+00  0.0000E+00  0.0000E+00  0.0000E+00  0.0000E+00  0.0000E+00  0.0000E+00  0.0000E+00  0.0000E+00  0.0000E+00  0.0000E+00  0.0000E+00  0.0000E+00  0.0000E+00  0.0000E+00  0.2246E+01  0.2670E+00  0.0000E+00  0.0000E+00
REACH    2        0    10  0.1067E+00  0.2879E-02  0.2879E-02  0.2968E-06  0.0000E+00  0.3449E+00  0.3449E+00  0.1192E+02  0.6813E+00  0.6812E+00  0.1481E+00  0.1481E+00  0.6842E+00  0.6841E+00  0.0000E+00  0.1280E-03  0.0000E+00  0.0000E+00  0.1147E-01  0.1149E-01  0.2679E-03  0.2659E-03  0.1102E+02  0.1101E+02  0.6143E+02  0.4913E+02  0.0000E+00  0.0000E+00  0.0000E+00  0.0000E+00  0.0000E+00  0.0000E+00  0.0000E+00  0.0000E+00  0.0000E+00  0.0000E+00  0.0000E+00  0.0000E+00  0.0000E+00  0.0000E+00  0.0000E+00  0.0000E+00  0.0000E+00  0.1366E+01  0.1596E+00  0.0000E+00  0.0000E+00
REACH    3        0    10  0.6245E+00  0.1756E-01  0.1752E-01  0.4188E-04  0.0000E+00  0.7329E+01  0.7329E+01  0.4961E+02  0.5942E+01  0.5927E+01  0.1290E+01  0.1286E+01  0.4665E+01  0.4657E+01  0.0000E+00  0.2274E-01  0.0000E+00  0.0000E+00  0.7702E-02  0.1139E-01  0.2888E-02  0.2438E-02  0.5630E+03  0.5537E+03  0.3691E+03  0.1625E+03  0.0000E+00  0.0000E+00  0.0000E+00  0.0000E+00  0.0000E+00  0.0000E+00  0.0000E+00  0.0000E+00  0.0000E+00  0.0000E+00  0.0000E+00  0.0000E+00  0.0000E+00  0.0000E+00  0.0000E+00  0.0000E+00  0.0000E+00  0.1061E+02  0.1297E+01  0.0000E+00  0.0000E+00
REACH    4        0    10  0.1189E+01  0.3284E-01  0.3279E-01  0.4316E-04  0.0000E+00  0.2421E+02  0.1870E+02  0.1089E+03  0.1045E+02  0.1043E+02  0.2269E+01  0.2265E+01  0.8619E+01  0.8610E+01  0.2341E-01  0.4709E-01  0.0000E+00  0.3401E-03  0.5211E-01  0.5641E-01  0.5048E-02  0.4576E-02  0.2353E+04  0.2329E+04  0.4647E+03  0.2808E+03  0.0000E+00  0.0000E+00  0.0000E+00  0.0000E+00  0.0000E+00  0.0000E+00  0.0000E+00  0.0000E+00  0.0000E+00  0.0000E+00  0.0000E+00  0.0000E+00  0.0000E+00  0.0000E+00  0.0000E+00  0.0000E+00  0.0000E+00  0.1909E+02  0.2321E+01  0.0000E+00  0.0000E+00
REACH    5        0    10  0.1468E+01  0.4000E-01  0.3998E-01  0.2496E-04  0.0000E+00  0.1946E+02  0.1185E+02  0.5956E+02  0.1195E+02  0.1194E+02  0.2595E+01  0.2590E+01  0.1014E+02  0.1014E+02  0.4722E-01  0.6621E-01  0.3401E-03  0.6354E-03  0.1159E+00  0.1204E+00  0.5621E-02  0.5337E-02  0.2354E+04  0.2331E+04  0.4227E+03  0.3423E+03  0.0000E+00  0.0000E+00  0.0000E+00  0.0000E+00  0.0000E+00  0.0000E+00  0.0000E+00  0.0000E+00  0.0000E+00  0.0000E+00  0.0000E+00  0.0000E+00  0.0000E+00  0.0000E+00  0.0000E+00  0.0000E+00  0.0000E+00  0.2214E+02  0.2710E+01  0.0000E+00  0.0000E+00
REACH    1        0    11  0.1194E+00  0.1157E-01  0.1157E-01  0.2483E-05  0.0000E+00  0.2462E+02  0.2462E+02  0.2005E+03  0.6436E+02  0.6434E+02  0.1397E+02  0.1396E+02  0.3410E+01  0.3409E+01  0.0000E+00  0.1191E-01  0.0000E+00  0.0000E+00  0.5339E-01  0.5754E-01  0.9372E+00  0.9261E+00  0.5201E+04  0.5192E+04  0.1413E+03  0.5182E+02  0.0000E+00  0.0000E+00  0.0000E+00  0.0000E+00  0.0000E+00  0.0000E+00  0.0000E+00  0.0000E+00  0.0000E+00  0.0000E+00  0.0000E+00  0.0000E+00  0.0000E+00  0.0000E+00  0.0000E+00  0.0000E+00  0.0000E+00  0.6776E+02  0.1402E+02  0.0000E+00  0.0000E+00
REACH    2        0    11  0.1067E+00  0.1050E-01  0.1050E-01  0.5415E-06  0.0000E+00  0.2490E+02  0.2490E+02  0.2007E+03  0.5266E+02  0.5265E+02  0.1145E+02  0.1145E+02  0.3072E+01  0.3072E+01  0.0000E+00  0.3484E-02  0.0000E+00  0.0000E+00  0.8089E-01  0.8211E-01  0.6454E+00  0.6430E+00  0.4463E+04  0.4460E+04  0.1511E+03  0.5285E+02  0.0000E+00  0.0000E+00  0.0000E+00  0.0000E+00  0.0000E+00  0.0000E+00  0.0000E+00  0.0000E+00  0.0000E+00  0.0000E+00  0.0000E+00  0.0000E+00  0.0000E+00  0.0000E+00  0.0000E+00  0.0000E+00  0.0000E+00  0.5573E+02  0.1153E+02  0.0000E+00  0.0000E+00
REACH    3        0    11  0.6245E+00  0.6214E-01  0.6207E-01  0.6702E-04  0.0000E+00  0.2514E+03  0.2514E+03  0.3719E+03  0.3921E+03  0.3914E+03  0.8526E+02  0.8502E+02  0.1972E+02  0.1969E+02  0.0000E+00  0.4999E+00  0.0000E+00  0.0000E+00  0.2239E+00  0.3991E+00  0.4985E+01  0.4728E+01  0.4165E+05  0.4114E+05  0.8143E+03  0.2812E+03  0.0000E+00  0.0000E+00  0.0000E+00  0.0000E+00  0.0000E+00  0.0000E+00  0.0000E+00  0.0000E+00  0.0000E+00  0.0000E+00  0.0000E+00  0.0000E+00  0.0000E+00  0.0000E+00  0.0000E+00  0.0000E+00  0.0000E+00  0.4116E+03  0.8542E+02  0.0000E+00  0.0000E+00
REACH    4        0    11  0.1189E+01  0.1176E+00  0.1175E+00  0.6728E-04  0.0000E+00  0.4830E+03  0.9926E+02  0.1610E+03  0.6994E+03  0.6987E+03  0.1520E+03  0.1518E+03  0.3596E+02  0.3593E+02  0.5118E+00  0.9717E+00  0.0000E+00  0.8019E-03  0.7423E+00  0.9035E+00  0.8644E+01  0.8458E+01  0.8026E+05  0.7984E+05  0.9530E+03  0.5024E+03  0.0000E+00  0.0000E+00  0.0000E+00  0.0000E+00  0.0000E+00  0.0000E+00  0.0000E+00  0.0000E+00  0.0000E+00  0.0000E+00  0.0000E+00  0.0000E+00  0.0000E+00  0.0000E+00  0.0000E+00  0.0000E+00  0.0000E+00  0.7356E+03  0.1527E+03  0.0000E+00  0.0000E+00
REACH    5        0    11  0.1468E+01  0.1447E+00  0.1447E+00  0.4385E-04  0.0000E+00  0.1529E+03  0.5041E+02  0.8315E+02  0.8144E+03  0.8135E+03  0.1770E+03  0.1767E+03  0.4274E+02  0.4272E+02  0.9752E+00  0.1664E+01  0.8019E-03  0.1845E-02  0.1239E+01  0.1485E+01  0.9882E+01  0.9679E+01  0.8953E+05  0.8880E+05  0.8232E+03  0.6089E+03  0.0000E+00  0.0000E+00  0.0000E+00  0.0000E+00  0.0000E+00  0.0000E+00  0.0000E+00  0.0000E+00  0.0000E+00  0.0000E+00  0.0000E+00  0.0000E+00  0.0000E+00  0.0000E+00  0.0000E+00  0.0000E+00  0.0000E+00  0.8579E+03  0.1782E+03  0.0000E+00  0.0000E+00
REACH    1        0    12  0.1194E+00  0.1290E-01  0.1290E-01  0.1495E-05  0.0000E+00  0.4907E+02  0.4907E+02  0.5104E+03  0.8813E+02  0.8811E+02  0.1913E+02  0.1913E+02  0.4532E+01  0.4532E+01  0.0000E+00  0.1103E-01  0.0000E+00  0.0000E+00  0.3758E-01  0.4143E-01  0.6250E+00  0.6187E+00  0.6478E+04  0.6470E+04  0.1964E+03  0.6637E+02  0.0000E+00  0.0000E+00  0.0000E+00  0.0000E+00  0.0000E+00  0.0000E+00  0.0000E+00  0.0000E+00  0.0000E+00  0.0000E+00  0.0000E+00  0.0000E+00  0.0000E+00  0.0000E+00  0.0000E+00  0.0000E+00  0.0000E+00  0.9265E+02  0.1917E+02  0.0000E+00  0.0000E+00
REACH    2        0    12  0.1067E+00  0.1148E-01  0.1148E-01  0.5998E-06  0.0000E+00  0.5231E+02  0.5231E+02  0.5859E+03  0.7134E+02  0.7133E+02  0.1552E+02  0.1552E+02  0.2917E+01  0.2917E+01  0.0000E+00  0.5578E-02  0.0000E+00  0.0000E+00  0.7787E-01  0.7985E-01  0.4450E+00  0.4426E+00  0.5827E+04  0.5822E+04  0.1918E+03  0.5889E+02  0.0000E+00  0.0000E+00  0.0000E+00  0.0000E+00  0.0000E+00  0.0000E+00  0.0000E+00  0.0000E+00  0.0000E+00  0.0000E+00  0.0000E+00  0.0000E+00  0.0000E+00  0.0000E+00  0.0000E+00  0.0000E+00  0.0000E+00  0.7426E+02  0.1560E+02  0.0000E+00  0.0000E+00
REACH    3        0    12  0.6245E+00  0.6766E-01  0.6762E-01  0.3943E-04  0.0000E+00  0.5384E+03  0.5384E+03  0.1062E+04  0.5362E+03  0.5355E+03  0.1166E+03  0.1164E+03  0.1905E+02  0.1904E+02  0.0000E+00  0.5171E+00  0.0000E+00  0.0000E+00  0.1546E+00  0.3369E+00  0.3682E+01  0.3475E+01  0.5799E+05  0.5746E+05  0.1052E+04  0.3174E+03  0.0000E+00  0.0000E+00  0.0000E+00  0.0000E+00  0.0000E+00  0.0000E+00  0.0000E+00  0.0000E+00  0.0000E+00  0.0000E+00  0.0000E+00  0.0000E+00  0.0000E+00  0.0000E+00  0.0000E+00  0.0000E+00  0.0000E+00  0.5551E+03  0.1168E+03  0.0000E+00  0.0000E+00
REACH    4        0    12  0.1189E+01  0.1285E+00  0.1285E+00  0.4167E-04  0.0000E+00  0.9704E+03  0.1201E+03  0.2112E+03  0.9422E+03  0.9414E+03  0.2050E+03  0.2047E+03  0.3610E+02  0.3608E+02  0.5282E+00  0.1124E+01  0.0000E+00  0.9653E-03  0.6485E+00  0.8595E+00  0.6081E+01  0.5891E+01  0.1078E+06  0.1072E+06  0.1164E+04  0.5617E+03  0.0000E+00  0.0000E+00  0.0000E+00  0.0000E+00  0.0000E+00  0.0000E+00  0.0000E+00  0.0000E+00  0.0000E+00  0.0000E+00  0.0000E+00  0.0000E+00  0.0000E+00  0.0000E+00  0.0000E+00  0.0000E+00  0.0000E+00  0.9786E+03  0.2056E+03  0.0000E+00  0.0000E+00
REACH    5        0    12  0.1468E+01  0.1584E+00  0.1583E+00  0.4444E-04  0.0000E+00  0.2330E+03  0.4889E+02  0.9305E+02  0.1100E+04  0.1098E+04  0.2391E+03  0.2386E+03  0.4259E+02  0.4257E+02  0.1129E+01  0.2370E+01  0.9653E-03  0.2416E-02  0.1213E+01  0.1658E+01  0.6887E+01  0.6667E+01  0.1199E+06  0.1186E+06  0.9500E+03  0.6835E+03  0.0000E+00  0.0000E+00  0.0000E+00  0.0000E+00  0.0000E+00  0.0000E+00  0.0000E+00  0.0000E+00  0.0000E+00  0.0000E+00  0.0000E+00  0.0000E+00  0.0000E+00  0.0000E+00  0.0000E+00  0.0000E+00  0.0000E+00  0.1143E+04  0.2402E+03  0.0000E+00  0.0000E+00
REACH    1        0  2016  0.1194E+00  0.8070E-02  0.8068E-02  0.1610E-05  0.0000E+00  0.8151E+02  0.8151E+02  0.7103E+02  0.1719E+03  0.1719E+03  0.3733E+02  0.3732E+02  0.1617E+02  0.1617E+02  0.0000E+00  0.3042E-01  0.0000E+00  0.0000E+00  0.3115E+00  0.3208E+00  0.1683E+01  0.1665E+01  0.1248E+05  0.1246E+05  0.1700E+04  0.1195E+04  0.0000E+00  0.0000E+00  0.0000E+00  0.0000E+00  0.0000E+00  0.0000E+00  0.0000E+00  0.0000E+00  0.0000E+00  0.0000E+00  0.0000E+00  0.0000E+00  0.0000E+00  0.0000E+00  0.0000E+00  0.0000E+00  0.0000E+00  0.1881E+03  0.3764E+02  0.0000E+00  0.0000E+00
REACH    2        0  2016  0.1067E+00  0.7261E-02  0.7261E-02  0.3924E-06  0.0000E+00  0.8544E+02  0.8544E+02  0.7846E+02  0.1414E+03  0.1414E+03  0.3078E+02  0.3077E+02  0.1226E+02  0.1226E+02  0.0000E+00  0.1107E-01  0.0000E+00  0.0000E+00  0.5999E+00  0.6035E+00  0.1200E+01  0.1195E+01  0.1109E+05  0.1108E+05  0.1566E+04  0.1054E+04  0.0000E+00  0.0000E+00  0.0000E+00  0.0000E+00  0.0000E+00  0.0000E+00  0.0000E+00  0.0000E+00  0.0000E+00  0.0000E+00  0.0000E+00  0.0000E+00  0.0000E+00  0.0000E+00  0.0000E+00  0.0000E+00  0.0000E+00  0.1537E+03  0.3137E+02  0.0000E+00  0.0000E+00
REACH    3        0  2016  0.6245E+00  0.4292E-01  0.4288E-01  0.4446E-04  0.0000E+00  0.9851E+03  0.9851E+03  0.1664E+03  0.1109E+04  0.1107E+04  0.2414E+03  0.2408E+03  0.7850E+02  0.7836E+02  0.0000E+00  0.1362E+01  0.0000E+00  0.0000E+00  0.1289E+01  0.1722E+01  0.1023E+02  0.9670E+01  0.1250E+06  0.1236E+06  0.8465E+04  0.3592E+04  0.0000E+00  0.0000E+00  0.0000E+00  0.0000E+00  0.0000E+00  0.0000E+00  0.0000E+00  0.0000E+00  0.0000E+00  0.0000E+00  0.0000E+00  0.0000E+00  0.0000E+00  0.0000E+00  0.0000E+00  0.0000E+00  0.0000E+00  0.1187E+04  0.2425E+03  0.0000E+00  0.0000E+00
REACH    4        0  2016  0.1189E+01  0.8135E-01  0.8130E-01  0.4578E-04  0.0000E+00  0.2111E+04  0.8725E+03  0.1274E+03  0.1998E+04  0.1997E+04  0.4354E+03  0.4348E+03  0.1496E+03  0.1495E+03  0.1392E+01  0.2844E+01  0.0000E+00  0.7585E-02  0.4142E+01  0.4614E+01  0.1841E+02  0.1791E+02  0.2814E+06  0.2798E+06  0.1108E+05  0.6311E+04  0.0000E+00  0.0000E+00  0.0000E+00  0.0000E+00  0.0000E+00  0.0000E+00  0.0000E+00  0.0000E+00  0.0000E+00  0.0000E+00  0.0000E+00  0.0000E+00  0.0000E+00  0.0000E+00  0.0000E+00  0.0000E+00  0.0000E+00  0.2149E+04  0.4394E+03  0.0000E+00  0.0000E+00
REACH    5        0  2016  0.1468E+01  0.1001E+00  0.1001E+00  0.3233E-04  0.0000E+00  0.1057E+04  0.4218E+03  0.6304E+02  0.2309E+04  0.2306E+04  0.5027E+03  0.5017E+03  0.1767E+03  0.1766E+03  0.2855E+01  0.5210E+01  0.7585E-02  0.1546E-01  0.7255E+01  0.8075E+01  0.2057E+02  0.2005E+02  0.3039E+06  0.3010E+06  0.9987E+04  0.7797E+04  0.0000E+00  0.0000E+00  0.0000E+00  0.0000E+00  0.0000E+00  0.0000E+00  0.0000E+00  0.0000E+00  0.0000E+00  0.0000E+00  0.0000E+00  0.0000E+00  0.0000E+00  0.0000E+00  0.0000E+00  0.0000E+00  0.0000E+00  0.2488E+04  0.5098E+03  0.0000E+00  0.0000E+00
REACH    1        0   4.0  0.1194E+00  0.9360E-02  0.9359E-02  0.1616E-05  0.0000E+00  0.2461E+03  0.2461E+03  0.1375E+03  0.4934E+03  0.4933E+03  0.1079E+03  0.1078E+03  0.2071E+02  0.2071E+02  0.0000E+00  0.8446E-01  0.0000E+00  0.0000E+00  0.4171E+00  0.4460E+00  0.6533E+01  0.6463E+01  0.4270E+05  0.4263E+05  0.1757E+04  0.1137E+04  0.0000E+00  0.0000E+00  0.0000E+00  0.0000E+00  0.0000E+00  0.0000E+00  0.0000E+00  0.0000E+00  0.0000E+00  0.0000E+00  0.0000E+00  0.0000E+00  0.0000E+00  0.0000E+00  0.0000E+00  0.0000E+00  0.0000E+00  0.5141E+03  0.1083E+03  0.0000E+00  0.0000E+00
REACH    2        0   4.0  0.1067E+00  0.8424E-02  0.8424E-02  0.4217E-06  0.0000E+00  0.2733E+03  0.2733E+03  0.1647E+03  0.3972E+03  0.3971E+03  0.8713E+02  0.8712E+02  0.1557E+02  0.1557E+02  0.0000E+00  0.2454E-01  0.0000E+00  0.0000E+00  0.7373E+00  0.7458E+00  0.4965E+01  0.4949E+01  0.4211E+05  0.4209E+05  0.1671E+04  0.1018E+04  0.0000E+00  0.0000E+00  0.0000E+00  0.0000E+00  0.0000E+00  0.0000E+00  0.0000E+00  0.0000E+00  0.0000E+00  0.0000E+00  0.0000E+00  0.0000E+00  0.0000E+00  0.0000E+00  0.0000E+00  0.0000E+00  0.0000E+00  0.4127E+03  0.8786E+02  0.0000E+00  0.0000E+00
REACH    3        0   4.0  0.6245E+00  0.4979E-01  0.4975E-01  0.4273E-04  0.0000E+00  0.2796E+04  0.2796E+04  0.3074E+03  0.2780E+04  0.2776E+04  0.6172E+03  0.6159E+03  0.9978E+02  0.9966E+02  0.0000E+00  0.3068E+01  0.0000E+00  0.0000E+00  0.1951E+01  0.3014E+01  0.3716E+02  0.3545E+02  0.4060E+06  0.4017E+06  0.9049E+04  0.4050E+04  0.0000E+00  0.0000E+00  0.0000E+00  0.0000E+00  0.0000E+00  0.0000E+00  0.0000E+00  0.0000E+00  0.0000E+00  0.0000E+00  0.0000E+00  0.0000E+00  0.0000E+00  0.0000E+00  0.0000E+00  0.0000E+00  0.0000E+00  0.2879E+04  0.6189E+03  0.0000E+00  0.0000E+00
REACH    4        0   4.0  0.1189E+01  0.9438E-01  0.9433E-01  0.4436E-04  0.0000E+00  0.5301E+04  0.1008E+04  0.1419E+03  0.5009E+04  0.5004E+04  0.1107E+04  0.1105E+04  0.1893E+03  0.1892E+03  0.3153E+01  0.6611E+01  0.0000E+00  0.7419E-02  0.6025E+01  0.7239E+01  0.6450E+02  0.6297E+02  0.7808E+06  0.7758E+06  0.1194E+05  0.7152E+04  0.0000E+00  0.0000E+00  0.0000E+00  0.0000E+00  0.0000E+00  0.0000E+00  0.0000E+00  0.0000E+00  0.0000E+00  0.0000E+00  0.0000E+00  0.0000E+00  0.0000E+00  0.0000E+00  0.0000E+00  0.0000E+00  0.0000E+00  0.5200E+04  0.1112E+04  0.0000E+00  0.0000E+00
REACH    5        0   4.0  0.1468E+01  0.1161E+00  0.1161E+00  0.3295E-04  0.0000E+00  0.1596E+04  0.5152E+03  0.7126E+02  0.5886E+04  0.5880E+04  0.1299E+04  0.1296E+04  0.2238E+03  0.2237E+03  0.6635E+01  0.1179E+02  0.7419E-02  0.1647E-01  0.1042E+02  0.1227E+02  0.7404E+02  0.7254E+02  0.8673E+06  0.8604E+06  0.1103E+05  0.8826E+04  0.0000E+00  0.0000E+00  0.0000E+00  0.0000E+00  0.0000E+00  0.0000E+00  0.0000E+00  0.0000E+00  0.0000E+00  0.0000E+00  0.0000E+00  0.0000E+00  0.0000E+00  0.0000E+00  0.0000E+00  0.0000E+00  0.0000E+00  0.6115E+04  0.1309E+04  0.0000E+00  0.0000E+00
