1
    SWAT Dec 23 2016    VER 2016/Rev 664                                                                 0/ 0/   0      0: 0: 0

    General Input/Output section (file.cio):                                        
    2/7/2020 21:38:35 QSWAT Workflow v1.5.2                                         
                                                                                    


LULC  HRU       GIS  SUB  MGT  MON   AREAkm2  PRECIPmm SNOFALLmm SNOMELTmm     IRRmm     PETmm      ETmm SW_INITmm  SW_ENDmm    PERCmm GW_RCHGmm DA_RCHGmm   REVAPmm  SA_IRRmm  DA_IRRmm   SA_STmm   DA_STmmSURQ_GENmmSURQ_CNTmm   TLOSSmm LATQGENmm    GW_Qmm    WYLDmm   DAILYCN TMP_AVdgC TMP_MXdgC TMP_MNdgCSOL_TMPdgCSOLARMJ/m2  SYLDt/ha  USLEt/haN_APPkg/haP_APPkg/haNAUTOkg/haPAUTOkg/ha NGRZkg/ha PGRZkg/haNCFRTkg/haPCFRTkg/haNRAINkg/ha NFIXkg/ha F-MNkg/ha A-MNkg/ha A-SNkg/ha F-MPkg/haAO-LPkg/ha L-APkg/ha A-SPkg/ha DNITkg/ha  NUPkg/ha  PUPkg/ha ORGNkg/ha ORGPkg/ha SEDPkg/haNSURQkg/haNLATQkg/ha NO3Lkg/haNO3GWkg/ha SOLPkg/ha P_GWkg/ha    W_STRS  TMP_STRS    N_STRS    P_STRS  BIOMt/ha       LAI   YLDt/ha  BACTPct   BACTLPct WTAB CLIm WTAB SOLm     SNOmm CMUPkg/haCMTOTkg/ha   QTILEmm TNO3kg/ha LNO3kg/ha  GW_Q_Dmm LATQCNTmm TVAPkg/ha
FRSE    1 000010001    1    0    1.10260E-03   576.600     0.000     0.000     0.000   117.352    90.099    92.967    96.133   318.986   206.573    10.329     2.347     0.000     0.000  1086.727  2024.318   165.592   149.801     0.000     0.016   168.154   324.945    84.923    26.316    28.503    24.129    25.523    15.425     0.000     0.104     0.000     0.000     0.000     0.000     0.000     0.000     0.000     0.000     0.000     0.000     0.009     1.152    -0.914     0.002     0.197    -0.293    -0.194     0.000     0.000     0.000     0.000     0.000     0.000     0.003     0.000     1.804     0.052     0.038     0.000     0.000     0.000     0.000     0.000     0.000     0.000     0.000 .00000E+00 .00000E+00 0.347E-04 0.404E+04 0.000E+00 0.000E+00 0.000E+00 0.000E+00 0.000E+00 0.187E-04     6.974     0.016     0.000
FRSE    2 000010002    1    0    1.10260E-03   576.600     0.000     0.000     0.000   117.352    90.095    92.941    96.083   311.761   201.755    10.088     2.347     0.000     0.000  1083.957  2023.740   165.519   165.027     0.000     5.787   164.170   341.791    84.918    26.316    28.503    24.129    25.523    15.425     0.322     0.829     0.000     0.000     0.000     0.000     0.000     0.000     0.000     0.000     0.000     0.000     0.008     1.141    -0.905     0.002     0.195    -0.272    -0.174     0.000     0.000     0.000     4.602     0.562     0.406     0.003     0.005     1.770     0.050     0.034     0.000     0.000     0.000     0.000     0.000     0.000     0.000     0.000 .00000E+00 .00000E+00 0.332E-04 0.404E+04 0.000E+00 0.000E+00 0.000E+00 0.000E+00 0.000E+00 0.534E-02     6.807     5.787     0.000
FRSE    3 000010003    1    0    1.11922E+00   576.600     0.000     0.000     0.000   117.352    88.041    91.983    96.086    17.107     9.341     0.467     2.347     0.000     0.000  1003.080  2000.930   163.742   163.742     0.000   289.278     3.624   456.891    84.744    26.316    28.503    24.129    25.509    15.425     8.914    11.383     0.000     0.000     0.000     0.000     0.000     0.000     0.000     0.000     0.000     0.000     0.011     1.095    -0.831     0.002     0.187     0.157     0.280     0.000     0.000     0.000    23.456     2.866     2.291     0.004     0.439     0.518     0.000     0.009     0.000     0.000     0.000     0.000     0.000     0.000     0.000     0.000 .00000E+00 .00000E+00 0.261E-04 0.404E+04 0.000E+00 0.000E+00 0.000E+00 0.000E+00 0.000E+00 0.439E+00     0.248   289.278     0.000
FRSE    4 000020001    2    0    1.93882E-01   576.600     0.000     0.000     0.000   117.315    87.347    91.230    96.084     7.285     3.427     0.171     2.346     0.000     0.000   895.335  2000.279   161.741   161.741     0.000   300.346     0.000   462.155    84.603    26.316    28.503    24.129    25.505    15.425    13.718     9.688     0.000     0.000     0.000     0.000     0.000     0.000     0.000     0.000     0.000     0.000     0.010     1.095    -0.816     0.002     0.187     0.181     0.297     0.000     0.000     0.000    27.156     3.317     2.665     0.005     0.415     0.142     0.000     0.009     0.000     0.000     0.000     0.000     0.000     0.000     0.000     0.000 .00000E+00 .00000E+00 0.242E-04 0.404E+04 0.000E+00 0.000E+00 0.000E+00 0.000E+00 0.000E+00 0.415E+00     0.067   300.346     0.000
FRSE    5 000020002    2    0    1.66692E-02   576.600     0.000     0.000     0.000   117.315   104.349    32.302    31.749     3.344     1.723     0.086     2.346     0.000     0.000   846.106  2000.201   443.869   443.869     0.000     0.004     0.000   443.931    97.391    26.316    28.503    24.129    25.330    15.425     0.000     0.000     0.000     0.000     0.000     0.000     0.000     0.000     0.000     0.000     0.000     0.000     0.000     0.028    -0.016     0.000     0.005    -0.050    -0.040     0.026     0.000     0.000     0.000     0.000     0.000     0.002     0.000     0.001     0.000     0.072     0.000     0.000     0.000     0.000     0.000     0.000     0.000     0.000 .00000E+00 .00000E+00 0.416E+00 0.404E+04 0.000E+00 0.000E+00 0.000E+00 0.000E+00 0.000E+00 0.000E+00     0.058     0.004     0.000
FRSE    6 000020003    2    0    1.40015E-02   576.600     0.000     0.000     0.000   117.315   104.350    32.307    31.770     3.344     1.723     0.086     2.346     0.000     0.000   846.137  2000.202   443.883   443.821     0.000     0.000     0.000   443.879    97.392    26.316    28.503    24.129    25.330    15.425     0.000     0.000     0.000     0.000     0.000     0.000     0.000     0.000     0.000     0.000     0.000     0.000     0.000     0.028    -0.016     0.000     0.005    -0.050    -0.040     0.026     0.000     0.000     0.000     0.000     0.000     0.002     0.000     0.001     0.000     0.072     0.000     0.000     0.000     0.000     0.000     0.000     0.000     0.000 .00000E+00 .00000E+00 0.416E+00 0.404E+04 0.000E+00 0.000E+00 0.000E+00 0.000E+00 0.000E+00 0.000E+00     0.058     0.000     0.000
FRSE    7 000020004    2    0    1.21547E-02   576.600     0.000     0.000     0.000   117.315   104.350    32.306    31.767     3.344     1.723     0.086     2.346     0.000     0.000   846.132  2000.202   443.881   443.881     0.000     0.000     0.000   443.939    97.392    26.316    28.503    24.129    25.330    15.425     0.000     0.000     0.000     0.000     0.000     0.000     0.000     0.000     0.000     0.000     0.000     0.000     0.000     0.028    -0.016     0.000     0.005    -0.050    -0.040     0.026     0.000     0.000     0.000     0.000     0.000     0.002     0.000     0.001     0.000     0.072     0.000     0.000     0.000     0.000     0.000     0.000     0.000     0.000 .00000E+00 .00000E+00 0.417E+00 0.404E+04 0.000E+00 0.000E+00 0.000E+00 0.000E+00 0.000E+00 0.000E+00     0.058     0.000     0.000
SWCH    8 000030001    3    0    1.61561E-03   576.600     0.000     0.000     0.000   117.404    81.497    92.998    96.197    39.930    24.480     1.224     2.348     0.000     0.000  1008.552  2002.258   182.676   182.676     0.000   258.651    17.799   459.720    86.266    26.316    28.503    24.129    25.250    15.425     0.033     0.060     0.000     0.000     0.000     0.000     0.000     0.000     0.000     0.000     0.000     0.000     4.517     1.345    -0.502     1.216     0.231     1.178     0.960     0.000     0.000     0.000     0.532     0.068     0.037     0.161     1.517     0.990     0.002     0.077     0.000     0.000     0.000     0.000     0.000     0.000     0.000     0.000 .00000E+00 .00000E+00 0.101E-04 0.404E+04 0.000E+00 0.000E+00 0.000E+00 0.000E+00 0.000E+00 0.152E+01     0.593   258.651     0.000
FRSE    9 000030002    3    0    1.20522E-03   576.600     0.000     0.000     0.000   117.404    90.112    92.962    96.131   318.145   206.010    10.300     2.348     0.000     0.000  1086.417  2024.258   165.578   162.632     0.000     0.652   167.699   337.940    84.922    26.316    28.503    24.129    25.523    15.425     0.061     0.194     0.000     0.000     0.000     0.000     0.000     0.000     0.000     0.000     0.000     0.000     0.009     1.150    -0.913     0.002     0.196    -0.289    -0.191     0.000     0.000     0.000     1.145     0.140     0.099     0.003     0.001     1.798     0.052     0.039     0.000     0.000     0.000     0.000     0.000     0.000     0.000     0.000 .00000E+00 .00000E+00 0.326E-04 0.404E+04 0.000E+00 0.000E+00 0.000E+00 0.000E+00 0.000E+00 0.613E-03     6.956     0.652     0.000
FRSE   10 000030003    3    0    1.71822E-03   576.600     0.000     0.000     0.000   117.404    90.110    92.944    96.096   313.397   202.848    10.142     2.348     0.000     0.000  1084.601  2023.874   165.526   164.897     0.000     4.465   165.084   341.293    84.919    26.316    28.503    24.129    25.523    15.425     0.305     0.576     0.000     0.000     0.000     0.000     0.000     0.000     0.000     0.000     0.000     0.000     0.008     1.141    -0.906     0.002     0.195    -0.274    -0.175     0.000     0.000     0.000     4.437     0.542     0.391     0.003     0.004     1.774     0.051     0.034     0.000     0.000     0.000     0.000     0.000     0.000     0.000     0.000 .00000E+00 .00000E+00 0.326E-04 0.404E+04 0.000E+00 0.000E+00 0.000E+00 0.000E+00 0.000E+00 0.411E-02     6.846     4.465     0.000
FRSE   11 000030004    3    0    1.47885E+00   576.600     0.000     0.000     0.000   117.404    87.366    91.223    96.091     6.643     3.127     0.156     2.348     0.000     0.000   885.814  2000.251   161.720   161.720     0.000   300.931     0.000   462.712    84.602    26.316    28.503    24.129    25.505    15.425    22.085    12.844     0.000     0.000     0.000     0.000     0.000     0.000     0.000     0.000     0.000     0.000     0.007     1.091    -0.814     0.001     0.186     0.184     0.296     0.000     0.000     0.000    30.827     3.764     3.040     0.005     0.418     0.128     0.000     0.008     0.000     0.000     0.000     0.000     0.000     0.000     0.000     0.000 .00000E+00 .00000E+00 0.234E-04 0.404E+04 0.000E+00 0.000E+00 0.000E+00 0.000E+00 0.000E+00 0.418E+00     0.062   300.931     0.000
BARR   12 000030005    3    0    1.34885E-02   576.600     0.000     0.000     0.000   117.404    81.772    54.758    62.591     0.000     0.000     0.000     2.348     0.000     0.000   755.710  2000.000   346.869   346.869     0.000   130.465     0.000   477.334    94.747    26.316    28.503    24.129    25.297    15.425    81.023    56.141     0.000     0.000     0.000     0.000     0.000     0.000     0.000     0.000     0.000     0.000     0.000     0.985    -0.771     0.000     0.168     0.201     0.271     0.000     0.000     0.000    45.959     5.605     4.707     0.034     0.439     0.000     0.000     0.013     0.000     0.000     0.000     0.000     0.000     0.000     0.000     0.000 .00000E+00 .00000E+00 0.162E-02 0.404E+04 0.000E+00 0.000E+00 0.000E+00 0.000E+00 0.000E+00 0.439E+00     0.000   130.465     0.000
FRSD   13 000030006    3    0    1.14067E+00   576.600     0.000     0.000     0.000   117.404    82.672    90.673    96.158     3.517     1.157     0.058     2.348     0.000     0.000   801.913  2000.068   224.464   224.464     0.000   246.746     0.000   471.223    89.093    26.316    28.503    24.129    25.313    15.425     0.388     0.311     0.000     0.000     0.000     0.000     0.000     0.000     0.000     0.000     0.000     0.000     0.332     1.115    -0.773     0.287     0.191     0.493     0.590     0.000     0.000     0.000     2.003     0.264     0.216     0.037     0.365     0.011     0.000     0.043     0.000     0.000     0.000     0.000     0.000     0.000     0.000     0.000 .00000E+00 .00000E+00 0.319E-04 0.404E+04 0.000E+00 0.000E+00 0.000E+00 0.000E+00 0.000E+00 0.365E+00     0.012   246.746     0.000
FRSD   14 000040001    4    0    1.10261E-03   576.600     0.000     0.000     0.000   117.327   104.273    32.248    31.712     3.337     1.790     0.090     2.347     0.000     0.000   848.542  2000.219   444.035   435.839     0.000     0.000     0.000   435.902    97.399    26.316    28.503    24.129    25.325    15.425     0.000     0.000     0.000     0.000     0.000     0.000     0.000     0.000     0.000     0.000     0.000     0.000     0.005     0.029    -0.015     0.004     0.005    -0.046    -0.036     0.030     0.000     0.000     0.000     0.000     0.000     0.003     0.000     0.001     0.000     0.071     0.000     0.000     0.000     0.000     0.000     0.000     0.000     0.000 .00000E+00 .00000E+00 0.361E+00 0.404E+04 0.000E+00 0.000E+00 0.000E+00 0.000E+00 0.000E+00 0.000E+00     0.063     0.000     0.000
FRSD   15 000040002    4    0    1.20522E-03   576.600     0.000     0.000     0.000   117.327   104.273    32.248    31.711     3.337     1.790     0.090     2.347     0.000     0.000   848.542  2000.219   444.035   440.778     0.000     0.000     0.000   440.840    97.399    26.316    28.503    24.129    25.325    15.425     0.000     0.000     0.000     0.000     0.000     0.000     0.000     0.000     0.000     0.000     0.000     0.000     0.005     0.029    -0.015     0.004     0.005    -0.046    -0.036     0.030     0.000     0.000     0.000     0.000     0.000     0.003     0.000     0.001     0.000     0.072     0.000     0.000     0.000     0.000     0.000     0.000     0.000     0.000 .00000E+00 .00000E+00 0.391E+00 0.404E+04 0.000E+00 0.000E+00 0.000E+00 0.000E+00 0.000E+00 0.000E+00     0.063     0.000     0.000
FRSD   16 000040003    4    0    1.10773E-01   576.600     0.000     0.000     0.000   117.327   104.273    32.247    31.706     3.337     1.790     0.090     2.347     0.000     0.000   848.534  2000.219   444.031   444.031     0.000     0.001     0.000   444.094    97.399    26.316    28.503    24.129    25.325    15.425     0.000     0.000     0.000     0.000     0.000     0.000     0.000     0.000     0.000     0.000     0.000     0.000     0.005     0.029    -0.015     0.004     0.005    -0.046    -0.036     0.030     0.000     0.000     0.000     0.000     0.000     0.003     0.000     0.001     0.000     0.072     0.000     0.000     0.000     0.000     0.000     0.000     0.000     0.000 .00000E+00 .00000E+00 0.424E+00 0.404E+04 0.000E+00 0.000E+00 0.000E+00 0.000E+00 0.000E+00 0.000E+00     0.063     0.001     0.000
FRSD   17 000040004    4    0    1.10261E-03   576.600     0.000     0.000     0.000   117.327    82.602    90.684    96.153     4.368     1.436     0.072     2.347     0.000     0.000   812.741  2000.085   224.493   224.493     0.000   246.018     0.000   470.526    89.094    26.316    28.503    24.129    25.311    15.425     0.059     0.156     0.000     0.000     0.000     0.000     0.000     0.000     0.000     0.000     0.000     0.000     0.343     1.135    -0.783     0.294     0.194     0.489     0.524     0.000     0.000     0.000     0.426     0.055     0.043     0.039     0.375     0.014     0.000     0.051     0.000     0.000     0.000     0.000     0.000     0.000     0.000     0.000 .00000E+00 .00000E+00 0.325E-04 0.404E+04 0.000E+00 0.000E+00 0.000E+00 0.000E+00 0.000E+00 0.375E+00     0.015   246.018     0.000
FRSD   18 000040005    4    0    1.20522E-03   576.600     0.000     0.000     0.000   117.327   104.273    32.248    31.712     3.337     1.790     0.090     2.347     0.000     0.000   848.542  2000.219   444.035   436.812     0.000     0.000     0.000   436.874    97.399    26.316    28.503    24.129    25.325    15.425     0.000     0.000     0.000     0.000     0.000     0.000     0.000     0.000     0.000     0.000     0.000     0.000     0.005     0.029    -0.015     0.004     0.005    -0.046    -0.036     0.030     0.000     0.000     0.000     0.000     0.000     0.003     0.000     0.001     0.000     0.071     0.000     0.000     0.000     0.000     0.000     0.000     0.000     0.000 .00000E+00 .00000E+00 0.367E+00 0.404E+04 0.000E+00 0.000E+00 0.000E+00 0.000E+00 0.000E+00 0.000E+00     0.063     0.000     0.000
FRSD   19 000040006    4    0    1.10261E-03   576.600     0.000     0.000     0.000   117.327   104.273    32.248    31.712     3.337     1.790     0.090     2.347     0.000     0.000   848.542  2000.219   444.035   440.286     0.000     0.000     0.000   440.348    97.399    26.316    28.503    24.129    25.325    15.425     0.000     0.000     0.000     0.000     0.000     0.000     0.000     0.000     0.000     0.000     0.000     0.000     0.005     0.029    -0.015     0.004     0.005    -0.046    -0.036     0.030     0.000     0.000     0.000     0.000     0.000     0.003     0.000     0.001     0.000     0.072     0.000     0.000     0.000     0.000     0.000     0.000     0.000     0.000 .00000E+00 .00000E+00 0.388E+00 0.404E+04 0.000E+00 0.000E+00 0.000E+00 0.000E+00 0.000E+00 0.000E+00     0.063     0.000     0.000
FRSD   20 000040007    4    0    1.25651E-02   576.600     0.000     0.000     0.000   117.327   104.273    32.247    31.708     3.337     1.790     0.090     2.347     0.000     0.000   848.536  2000.219   444.032   444.032     0.000     0.000     0.000   444.095    97.399    26.316    28.503    24.129    25.325    15.425     0.000     0.000     0.000     0.000     0.000     0.000     0.000     0.000     0.000     0.000     0.000     0.000     0.005     0.029    -0.015     0.004     0.005    -0.046    -0.036     0.030     0.000     0.000     0.000     0.000     0.000     0.003     0.000     0.001     0.000     0.072     0.000     0.000     0.000     0.000     0.000     0.000     0.000     0.000 .00000E+00 .00000E+00 0.424E+00 0.404E+04 0.000E+00 0.000E+00 0.000E+00 0.000E+00 0.000E+00 0.000E+00     0.063     0.000     0.000
SWCH   21 000040008    4    0    1.14364E-02   576.600     0.000     0.000     0.000   117.327    80.491    90.010    96.184     5.034     1.521     0.076     2.347     0.000     0.000   826.626  2000.087   175.234   175.234     0.000   292.166     0.000   467.414    85.754    26.316    28.503    24.129    25.237    15.425     0.159     0.151     0.000     0.000     0.000     0.000     0.000     0.000     0.000     0.000     0.000     0.000     4.238     1.333    -0.460     1.183     0.229     1.210     0.989     0.000     0.000     0.000     2.166     0.280     0.157     0.177     1.558     0.033     0.000     0.071     0.000     0.000     0.000     0.000     0.000     0.000     0.000     0.000 .00000E+00 .00000E+00 0.814E-05 0.404E+04 0.000E+00 0.000E+00 0.000E+00 0.000E+00 0.000E+00 0.156E+01     0.014   292.166     0.000
FRSE   22 000040009    4    0    1.10261E-03   576.600     0.000     0.000     0.000   117.327    90.092    92.968    96.131   318.993   206.579    10.329     2.347     0.000     0.000  1086.729  2024.316   165.595   149.803     0.000     0.016   168.153   324.946    84.923    26.316    28.503    24.129    25.523    15.425     0.000     0.104     0.000     0.000     0.000     0.000     0.000     0.000     0.000     0.000     0.000     0.000     0.009     1.152    -0.914     0.002     0.197    -0.293    -0.194     0.000     0.000     0.000     0.000     0.000     0.000     0.003     0.000     1.804     0.052     0.038     0.000     0.000     0.000     0.000     0.000     0.000     0.000     0.000 .00000E+00 .00000E+00 0.350E-04 0.404E+04 0.000E+00 0.000E+00 0.000E+00 0.000E+00 0.000E+00 0.187E-04     6.973     0.016     0.000
FRSE   23 000040010    4    0    1.10261E-03   576.600     0.000     0.000     0.000   117.327    90.089    92.943    96.081   312.335   202.131    10.107     2.347     0.000     0.000  1084.170  2023.783   165.524   164.993     0.000     5.347   164.474   341.634    84.919    26.316    28.503    24.129    25.523    15.425     0.291     0.692     0.000     0.000     0.000     0.000     0.000     0.000     0.000     0.000     0.000     0.000     0.008     1.142    -0.906     0.002     0.195    -0.274    -0.176     0.000     0.000     0.000     4.242     0.518     0.374     0.003     0.005     1.773     0.051     0.035     0.000     0.000     0.000     0.000     0.000     0.000     0.000     0.000 .00000E+00 .00000E+00 0.335E-04 0.404E+04 0.000E+00 0.000E+00 0.000E+00 0.000E+00 0.000E+00 0.493E-02     6.819     5.347     0.000
FRSE   24 000040011    4    0    1.38445E+00   576.600     0.000     0.000     0.000   117.327    87.350    91.229    96.085     6.909     3.250     0.163     2.347     0.000     0.000   890.598  2000.268   161.738   161.738     0.000   300.699     0.000   462.501    84.603    26.316    28.503    24.129    25.505    15.425    18.541    11.064     0.000     0.000     0.000     0.000     0.000     0.000     0.000     0.000     0.000     0.000     0.008     1.092    -0.815     0.002     0.187     0.183     0.297     0.000     0.000     0.000    29.427     3.594     2.897     0.005     0.417     0.133     0.000     0.008     0.000     0.000     0.000     0.000     0.000     0.000     0.000     0.000 .00000E+00 .00000E+00 0.241E-04 0.404E+04 0.000E+00 0.000E+00 0.000E+00 0.000E+00 0.000E+00 0.417E+00     0.064   300.699     0.000
FRSE   25 000040012    4    0    1.30779E-03   576.600     0.000     0.000     0.000   117.327   104.355    32.323    31.789     3.346     1.724     0.086     2.347     0.000     0.000   846.179  2000.202   443.857   437.364     0.000     0.000     0.000   437.421    97.391    26.316    28.503    24.129    25.330    15.425     0.000     0.000     0.000     0.000     0.000     0.000     0.000     0.000     0.000     0.000     0.000     0.000     0.000     0.028    -0.016     0.000     0.005    -0.050    -0.040     0.026     0.000     0.000     0.000     0.000     0.000     0.002     0.000     0.001     0.000     0.071     0.000     0.000     0.000     0.000     0.000     0.000     0.000     0.000 .00000E+00 .00000E+00 0.367E+00 0.404E+04 0.000E+00 0.000E+00 0.000E+00 0.000E+00 0.000E+00 0.000E+00     0.058     0.000     0.000
FRSE   26 000040013    4    0    1.30779E-03   576.600     0.000     0.000     0.000   117.327   104.355    32.323    31.789     3.346     1.724     0.086     2.347     0.000     0.000   846.178  2000.202   443.856   442.288     0.000     0.000     0.000   442.346    97.391    26.316    28.503    24.129    25.330    15.425     0.000     0.000     0.000     0.000     0.000     0.000     0.000     0.000     0.000     0.000     0.000     0.000     0.000     0.028    -0.016     0.000     0.005    -0.050    -0.040     0.026     0.000     0.000     0.000     0.000     0.000     0.002     0.000     0.001     0.000     0.072     0.000     0.000     0.000     0.000     0.000     0.000     0.000     0.000 .00000E+00 .00000E+00 0.401E+00 0.404E+04 0.000E+00 0.000E+00 0.000E+00 0.000E+00 0.000E+00 0.000E+00     0.058     0.000     0.000
FRSE   27 000040014    4    0    1.25959E-01   576.600     0.000     0.000     0.000   117.327   104.353    32.316    31.764     3.345     1.723     0.086     2.347     0.000     0.000   846.143  2000.202   443.841   443.841     0.000     0.004     0.000   443.903    97.390    26.316    28.503    24.129    25.330    15.425     0.000     0.000     0.000     0.000     0.000     0.000     0.000     0.000     0.000     0.000     0.000     0.000     0.000     0.028    -0.016     0.000     0.005    -0.050    -0.040     0.026     0.000     0.000     0.000     0.000     0.000     0.002     0.000     0.001     0.000     0.072     0.000     0.000     0.000     0.000     0.000     0.000     0.000     0.000 .00000E+00 .00000E+00 0.416E+00 0.404E+04 0.000E+00 0.000E+00 0.000E+00 0.000E+00 0.000E+00 0.000E+00     0.058     0.004     0.000
FRSD   28 000040015    4    0    1.22573E-02   576.600     0.000     0.000     0.000   117.327    82.624    90.681    96.153     4.273     1.405     0.070     2.347     0.000     0.000   811.534  2000.083   224.485   224.485     0.000   246.087     0.000   470.587    89.094    26.316    28.503    24.129    25.312    15.425     0.131     0.173     0.000     0.000     0.000     0.000     0.000     0.000     0.000     0.000     0.000     0.000     0.340     1.127    -0.779     0.292     0.193     0.492     0.560     0.000     0.000     0.000     0.888     0.115     0.092     0.038     0.371     0.014     0.000     0.047     0.000     0.000     0.000     0.000     0.000     0.000     0.000     0.000 .00000E+00 .00000E+00 0.326E-04 0.404E+04 0.000E+00 0.000E+00 0.000E+00 0.000E+00 0.000E+00 0.371E+00     0.015   246.087     0.000
BARR   29 000040016    4    0    1.14570E-01   576.600     0.000     0.000     0.000   117.327    81.766    54.766    62.589     0.000     0.000     0.000     2.347     0.000     0.000   755.467  2000.000   346.887   346.887     0.000   130.467     0.000   477.354    94.747    26.316    28.503    24.129    25.297    15.425    74.641    43.575     0.000     0.000     0.000     0.000     0.000     0.000     0.000     0.000     0.000     0.000     0.000     0.985    -0.771     0.000     0.168     0.200     0.273     0.000     0.000     0.000    45.094     5.499     4.618     0.034     0.439     0.000     0.000     0.013     0.000     0.000     0.000     0.000     0.000     0.000     0.000     0.000 .00000E+00 .00000E+00 0.162E-02 0.404E+04 0.000E+00 0.000E+00 0.000E+00 0.000E+00 0.000E+00 0.439E+00     0.000   130.467     0.000
BARR   30 000040017    4    0    1.12312E-02   576.600     0.000     0.000     0.000   117.327    90.938    17.000    12.893     1.615     0.684     0.034     2.347     0.000     0.000   775.982  2000.053   474.515   474.515     0.000     0.000     0.000   474.529    98.103    26.316    28.503    24.129    25.071    15.425     0.000     0.000     0.000     0.000     0.000     0.000     0.000     0.000     0.000     0.000     0.000     0.000     0.000     0.026    -0.011     0.000     0.004    -0.054    -0.044     0.019     0.000     0.000     0.000     0.000     0.000     0.006     0.000     0.000     0.000     0.079     0.000     0.000     0.000     0.000     0.000     0.000     0.000     0.000 .00000E+00 .00000E+00 0.250E+01 0.404E+04 0.000E+00 0.000E+00 0.000E+00 0.000E+00 0.000E+00 0.000E+00     0.013     0.000     0.000
FRSE   31 000050001    5    0    1.11379E+00   576.600     0.000     0.000     0.000   117.298    87.345    91.238    96.082     7.737     3.656     0.183     2.346     0.000     0.000   900.567  2000.297   161.770   161.770     0.000   299.894     0.000   461.737    84.605    26.316    28.503    24.129    25.505    15.425    12.994     8.969     0.000     0.000     0.000     0.000     0.000     0.000     0.000     0.000     0.000     0.000     0.010     1.095    -0.816     0.002     0.187     0.181     0.297     0.000     0.000     0.000    26.745     3.267     2.623     0.005     0.413     0.156     0.000     0.009     0.000     0.000     0.000     0.000     0.000     0.000     0.000     0.000 .00000E+00 .00000E+00 0.244E-04 0.404E+04 0.000E+00 0.000E+00 0.000E+00 0.000E+00 0.000E+00 0.413E+00     0.073   299.894     0.000
FRSE   32 000050002    5    0    1.10260E-03   576.600     0.000     0.000     0.000   117.298   104.344    32.286    31.744     3.342     1.722     0.086     2.346     0.000     0.000   846.084  2000.201   443.923   439.205     0.000     0.000     0.000   439.263    97.394    26.316    28.503    24.129    25.330    15.425     0.000     0.000     0.000     0.000     0.000     0.000     0.000     0.000     0.000     0.000     0.000     0.000     0.000     0.028    -0.016     0.000     0.005    -0.050    -0.040     0.026     0.000     0.000     0.000     0.000     0.000     0.002     0.000     0.001     0.000     0.072     0.000     0.000     0.000     0.000     0.000     0.000     0.000     0.000 .00000E+00 .00000E+00 0.378E+00 0.404E+04 0.000E+00 0.000E+00 0.000E+00 0.000E+00 0.000E+00 0.000E+00     0.058     0.000     0.000
FRSE   33 000050003    5    0    1.76952E-02   576.600     0.000     0.000     0.000   117.298   104.344    32.286    31.744     3.342     1.722     0.086     2.346     0.000     0.000   846.084  2000.201   443.923   440.895     0.000     0.000     0.000   440.953    97.394    26.316    28.503    24.129    25.330    15.425     0.000     0.000     0.000     0.000     0.000     0.000     0.000     0.000     0.000     0.000     0.000     0.000     0.000     0.028    -0.016     0.000     0.005    -0.050    -0.040     0.026     0.000     0.000     0.000     0.000     0.000     0.002     0.000     0.001     0.000     0.072     0.000     0.000     0.000     0.000     0.000     0.000     0.000     0.000 .00000E+00 .00000E+00 0.389E+00 0.404E+04 0.000E+00 0.000E+00 0.000E+00 0.000E+00 0.000E+00 0.000E+00     0.058     0.000     0.000
FRSE   34 000050004    5    0    1.21444E-01   576.600     0.000     0.000     0.000   117.298   104.342    32.280    31.724     3.341     1.722     0.086     2.346     0.000     0.000   846.057  2000.201   443.910   443.910     0.000     0.003     0.000   443.971    97.393    26.316    28.503    24.129    25.330    15.425     0.000     0.000     0.000     0.000     0.000     0.000     0.000     0.000     0.000     0.000     0.000     0.000     0.000     0.028    -0.016     0.000     0.005    -0.050    -0.040     0.026     0.000     0.000     0.000     0.000     0.000     0.002     0.000     0.001     0.000     0.072     0.000     0.000     0.000     0.000     0.000     0.000     0.000     0.000 .00000E+00 .00000E+00 0.417E+00 0.404E+04 0.000E+00 0.000E+00 0.000E+00 0.000E+00 0.000E+00 0.000E+00     0.058     0.003     0.000
FRSE   35 000050005    5    0    1.12312E-02   576.600     0.000     0.000     0.000   117.298    88.694    92.351    96.082    27.999    15.849     0.792     2.346     0.000     0.000  1003.590  2001.627   228.808   228.808     0.000   216.322    10.035   455.604    89.310    26.316    28.503    24.129    25.510    15.425     4.106     6.643     0.000     0.000     0.000     0.000     0.000     0.000     0.000     0.000     0.000     0.000     0.014     1.103    -0.844     0.003     0.188     0.137     0.253     0.000     0.000     0.000    20.453     2.499     1.970     0.007     0.413     0.921     0.001     0.016     0.000     0.000     0.000     0.000     0.000     0.000     0.000     0.000 .00000E+00 .00000E+00 0.957E-04 0.404E+04 0.000E+00 0.000E+00 0.000E+00 0.000E+00 0.000E+00 0.413E+00     0.439   216.322     0.000
FRSE   36 000050006    5    0    1.15390E-02   576.600     0.000     0.000     0.000   117.298   104.344    32.286    31.744     3.342     1.722     0.086     2.346     0.000     0.000   846.084  2000.201   443.923   438.469     0.000     0.000     0.000   438.527    97.394    26.316    28.503    24.129    25.330    15.425     0.000     0.000     0.000     0.000     0.000     0.000     0.000     0.000     0.000     0.000     0.000     0.000     0.000     0.028    -0.016     0.000     0.005    -0.050    -0.040     0.026     0.000     0.000     0.000     0.000     0.000     0.002     0.000     0.001     0.000     0.071     0.000     0.000     0.000     0.000     0.000     0.000     0.000     0.000 .00000E+00 .00000E+00 0.374E+00 0.404E+04 0.000E+00 0.000E+00 0.000E+00 0.000E+00 0.000E+00 0.000E+00     0.058     0.000     0.000
FRSE   37 000050007    5    0    1.83108E-02   576.600     0.000     0.000     0.000   117.298   104.344    32.286    31.744     3.342     1.722     0.086     2.346     0.000     0.000   846.084  2000.201   443.923   440.768     0.000     0.000     0.000   440.825    97.394    26.316    28.503    24.129    25.330    15.425     0.000     0.000     0.000     0.000     0.000     0.000     0.000     0.000     0.000     0.000     0.000     0.000     0.000     0.028    -0.016     0.000     0.005    -0.050    -0.040     0.026     0.000     0.000     0.000     0.000     0.000     0.002     0.000     0.001     0.000     0.072     0.000     0.000     0.000     0.000     0.000     0.000     0.000     0.000 .00000E+00 .00000E+00 0.388E+00 0.404E+04 0.000E+00 0.000E+00 0.000E+00 0.000E+00 0.000E+00 0.000E+00     0.058     0.000     0.000
FRSE   38 000050008    5    0    1.10260E-01   576.600     0.000     0.000     0.000   117.298   104.343    32.285    31.743     3.342     1.722     0.086     2.346     0.000     0.000   846.083  2000.201   443.922   443.849     0.000     0.000     0.000   443.907    97.394    26.316    28.503    24.129    25.330    15.425     0.000     0.000     0.000     0.000     0.000     0.000     0.000     0.000     0.000     0.000     0.000     0.000     0.000     0.028    -0.016     0.000     0.005    -0.050    -0.040     0.026     0.000     0.000     0.000     0.000     0.000     0.002     0.000     0.001     0.000     0.072     0.000     0.000     0.000     0.000     0.000     0.000     0.000     0.000 .00000E+00 .00000E+00 0.417E+00 0.404E+04 0.000E+00 0.000E+00 0.000E+00 0.000E+00 0.000E+00 0.000E+00     0.058     0.000     0.000
FRSE   39 000050009    5    0    1.20521E-03   576.600     0.000     0.000     0.000   117.298    89.627    92.718    96.080   108.348    67.741     3.387     2.346     0.000     0.000  1023.155  2007.660   229.453   229.453     0.000   134.050    53.363   419.026    89.356    26.316    28.503    24.129    25.518    15.425     3.689     4.275     0.000     0.000     0.000     0.000     0.000     0.000     0.000     0.000     0.000     0.000     0.009     1.097    -0.863     0.002     0.187     0.026     0.166     0.000     0.000     0.000    18.759     2.291     1.818     0.004     0.193     1.544     0.014     0.016     0.000     0.000     0.000     0.000     0.000     0.000     0.000     0.000 .00000E+00 .00000E+00 0.114E-03 0.404E+04 0.000E+00 0.000E+00 0.000E+00 0.000E+00 0.000E+00 0.193E+00     2.160   134.050     0.000
FRSE   40 000050010    5    0    1.10260E-03   576.600     0.000     0.000     0.000   117.298   104.344    32.286    31.744     3.342     1.722     0.086     2.346     0.000     0.000   846.084  2000.201   443.923   438.870     0.000     0.000     0.000   438.928    97.394    26.316    28.503    24.129    25.330    15.425     0.000     0.000     0.000     0.000     0.000     0.000     0.000     0.000     0.000     0.000     0.000     0.000     0.000     0.028    -0.016     0.000     0.005    -0.050    -0.040     0.026     0.000     0.000     0.000     0.000     0.000     0.002     0.000     0.001     0.000     0.072     0.000     0.000     0.000     0.000     0.000     0.000     0.000     0.000 .00000E+00 .00000E+00 0.376E+00 0.404E+04 0.000E+00 0.000E+00 0.000E+00 0.000E+00 0.000E+00 0.000E+00     0.058     0.000     0.000
FRSE   41 000050011    5    0    1.27703E-02   576.600     0.000     0.000     0.000   117.298   104.344    32.286    31.744     3.342     1.722     0.086     2.346     0.000     0.000   846.084  2000.201   443.923   442.129     0.000     0.000     0.000   442.187    97.394    26.316    28.503    24.129    25.330    15.425     0.000     0.000     0.000     0.000     0.000     0.000     0.000     0.000     0.000     0.000     0.000     0.000     0.000     0.028    -0.016     0.000     0.005    -0.050    -0.040     0.026     0.000     0.000     0.000     0.000     0.000     0.002     0.000     0.001     0.000     0.072     0.000     0.000     0.000     0.000     0.000     0.000     0.000     0.000 .00000E+00 .00000E+00 0.400E+00 0.404E+04 0.000E+00 0.000E+00 0.000E+00 0.000E+00 0.000E+00 0.000E+00     0.058     0.000     0.000
FRSE   42 000050012    5    0    1.49249E-02   576.600     0.000     0.000     0.000   117.298   104.343    32.285    31.743     3.342     1.722     0.086     2.346     0.000     0.000   846.083  2000.201   443.922   443.855     0.000     0.000     0.000   443.912    97.394    26.316    28.503    24.129    25.330    15.425     0.000     0.000     0.000     0.000     0.000     0.000     0.000     0.000     0.000     0.000     0.000     0.000     0.000     0.028    -0.016     0.000     0.005    -0.050    -0.040     0.026     0.000     0.000     0.000     0.000     0.000     0.002     0.000     0.001     0.000     0.072     0.000     0.000     0.000     0.000     0.000     0.000     0.000     0.000 .00000E+00 .00000E+00 0.417E+00 0.404E+04 0.000E+00 0.130E+03 0.195E+04 0.000E+00 0.000E+00 0.000E+00     0.058     0.000     0.000
FRSE    1 000010001    1    0    2.10260E-03   144.700     0.000     0.000     0.000   106.796    60.329    82.144    55.788    82.450   188.808     9.440     2.136     0.000     0.000  1080.438  2026.456    42.260    58.055     0.000     0.011   183.520   248.890    82.650    26.895    29.579    24.211    25.709    16.480     0.006     0.044     0.000     0.000     0.000     0.000     0.000     0.000     0.000     0.000     0.000     0.000     0.006     0.945    -0.828     0.001     0.161    -0.350    -0.225     0.000     1.127     0.362     0.149     0.018     0.013     0.000     0.000     0.320     0.050     0.014     0.000     0.000     0.034    13.753     0.000     0.714     3.229     0.006 .00000E+00 .00000E+00 0.198E-05 0.404E+04 0.000E+00 0.000E+00 0.000E+00 0.000E+00 0.000E+00 0.307E-05     7.303     0.011     0.000
FRSE    2 000010002    1    0    2.10260E-03   144.700     0.000     0.000     0.000   106.796    60.305    82.141    55.812    80.579   184.509     9.225     2.136     0.000     0.000  1077.814  2025.836    42.252    42.744     0.000     3.620   179.290   232.783    82.650    26.895    29.579    24.211    25.709    16.480     0.148     0.116     0.000     0.000     0.000     0.000     0.000     0.000     0.000     0.000     0.000     0.000     0.005     0.936    -0.820     0.001     0.160    -0.341    -0.199     0.000     1.123     0.361     1.520     0.186     0.134     0.000     0.003     0.314     0.048     0.008     0.000     0.000     0.034    13.769     0.000     0.711     3.224     0.006 .00000E+00 .00000E+00 0.174E-05 0.404E+04 0.000E+00 0.000E+00 0.000E+00 0.000E+00 0.000E+00 0.251E-02     7.130     3.620     0.000
FRSE    3 000010003    1    0    2.11922E+00   144.700     0.000     0.000     0.000   106.796    68.509    80.244    47.578     5.512    10.497     0.525     2.136     0.000     0.000  1002.470  2001.152    42.253    42.253     0.000    86.536     8.447   137.539    82.151    26.895    29.579    24.211    25.638    16.480     4.428     3.290     0.000     0.000     0.000     0.000     0.000     0.000     0.000     0.000     0.000     0.000     0.006     0.888    -0.752     0.001     0.152    -0.598     0.028     0.000     4.671     1.158     6.485     0.792     0.634     0.000     0.119     0.178     0.001     0.002     0.000     0.000     0.034     1.131     0.000     2.266     5.000     0.018 .00000E+00 .00000E+00 0.137E-05 0.404E+04 0.000E+00 0.000E+00 0.000E+00 0.000E+00 0.000E+00 0.119E+00     0.303    86.536     0.000
FRSE    4 000020001    2    0    2.93882E-01   144.700     0.000     0.000     0.000   106.713    68.455    80.250    47.621     2.729     4.537     0.227     2.134     0.000     0.000   897.511  2000.404    42.255    42.255     0.000    89.685     0.000   132.041    82.153    26.895    29.579    24.211    25.637    16.480     6.924     7.157     0.000     0.000     0.000     0.000     0.000     0.000     0.000     0.000     0.000     0.000     0.005     0.890    -0.739     0.001     0.152    -0.600     0.041     0.000     5.821     1.219     7.053     0.861     0.694     0.000     0.121     0.072     0.000     0.001     0.000     0.000     0.034     0.298     0.000     2.393     5.000     0.019 .00000E+00 .00000E+00 0.127E-05 0.404E+04 0.000E+00 0.000E+00 0.000E+00 0.000E+00 0.000E+00 0.121E+00     0.101    89.685     0.000
FRSE    5 000020002    2    0    2.66692E-02   144.700     0.000     0.000     0.000   106.713    52.477    15.687     0.000     1.331     2.150     0.108     2.134     0.000     0.000   846.015  2000.243   122.626   122.626     0.000     0.004     0.000   122.695    88.459    26.895    29.579    24.211    25.462    16.480     0.000     0.000     0.000     0.000     0.000     0.000     0.000     0.000     0.000     0.000     0.000     0.000     0.000     0.018    -0.014     0.000     0.003    -0.060    -0.047     0.006     0.019     0.052     0.000     0.000     0.000     0.000     0.000     0.000     0.000     0.019     0.000     7.772     0.034    21.147     0.000     0.053     1.047     0.000 .00000E+00 .00000E+00 0.225E+01 0.404E+04 0.000E+00 0.000E+00 0.000E+00 0.000E+00 0.000E+00 0.000E+00     0.066     0.004     0.000
FRSE    6 000020003    2    0    2.40015E-02   144.700     0.000     0.000     0.000   106.713    52.509    15.708     0.000     1.333     2.151     0.108     2.134     0.000     0.000   846.046  2000.244   122.626   122.690     0.000     0.000     0.000   122.756    88.453    26.895    29.579    24.211    25.463    16.480     0.000     0.000     0.000     0.000     0.000     0.000     0.000     0.000     0.000     0.000     0.000     0.000     0.000     0.018    -0.014     0.000     0.003    -0.060    -0.047     0.007     0.019     0.052     0.000     0.000     0.000     0.000     0.000     0.000     0.000     0.019     0.000     7.751     0.034    21.147     0.000     0.053     1.047     0.000 .00000E+00 .00000E+00 0.225E+01 0.404E+04 0.000E+00 0.000E+00 0.000E+00 0.000E+00 0.000E+00 0.000E+00     0.066     0.000     0.000
FRSE    7 000020004    2    0    2.21547E-02   144.700     0.000     0.000     0.000   106.713    52.505    15.705     0.000     1.333     2.151     0.108     2.134     0.000     0.000   846.041  2000.244   122.626   122.626     0.000     0.000     0.000   122.692    88.454    26.895    29.579    24.211    25.463    16.480     0.000     0.000     0.000     0.000     0.000     0.000     0.000     0.000     0.000     0.000     0.000     0.000     0.000     0.018    -0.014     0.000     0.003    -0.060    -0.047     0.007     0.019     0.052     0.000     0.000     0.000     0.000     0.000     0.000     0.000     0.019     0.000     7.754     0.034    21.147     0.000     0.053     1.047     0.000 .00000E+00 .00000E+00 0.225E+01 0.404E+04 0.000E+00 0.000E+00 0.000E+00 0.000E+00 0.000E+00 0.000E+00     0.066     0.000     0.000
SWCH    8 000030001    3    0    2.61561E-03   144.700     0.000     0.000     0.000   106.915    72.180    80.624    42.649    11.323    24.042     1.202     2.138     0.000     0.000  1006.970  2002.735    46.167    46.167     0.000    76.977    22.283   146.152    83.770    26.895    29.579    24.211    25.381    16.480     0.019     0.009     0.000     0.000   114.850     0.000     0.000     0.000     0.000     0.000     0.000     0.000     3.125     1.081    -0.453     0.843     0.186    -0.623     0.474     0.000    39.157     3.377     0.219     0.028     0.015     0.013     0.340     0.360     0.004     0.018     0.000     0.000     0.092     3.006     0.000     2.579     4.926     0.003 .00000E+00 .00000E+00 0.000E+00 0.404E+04 0.000E+00 0.000E+00 0.000E+00 0.000E+00 0.000E+00 0.340E+00     0.725    76.977     0.000
FRSE    9 000030002    3    0    2.20522E-03   144.700     0.000     0.000     0.000   106.915    60.395    82.126    55.738    82.227   188.303     9.415     2.138     0.000     0.000  1080.138  2026.389    42.256    45.202     0.000     0.455   183.028   235.969    82.646    26.895    29.579    24.211    25.709    16.480     0.026     0.065     0.000     0.000     0.000     0.000     0.000     0.000     0.000     0.000     0.000     0.000     0.006     0.943    -0.827     0.001     0.161    -0.349    -0.220     0.000     1.126     0.362     0.399     0.049     0.034     0.000     0.000     0.319     0.050     0.011     0.000     0.000     0.034    13.762     0.000     0.713     3.227     0.006 .00000E+00 .00000E+00 0.171E-05 0.404E+04 0.000E+00 0.000E+00 0.000E+00 0.000E+00 0.000E+00 0.328E-03     7.284     0.455     0.000
FRSE   10 000030003    3    0    2.71822E-03   144.700     0.000     0.000     0.000   106.915    60.370    82.126    55.763    80.996   185.480     9.274     2.138     0.000     0.000  1078.419  2025.977    42.250    42.879     0.000     2.793   180.251   233.093    82.646    26.895    29.579    24.211    25.709    16.480     0.135     0.270     0.000     0.000     0.000     0.000     0.000     0.000     0.000     0.000     0.000     0.000     0.005     0.936    -0.820     0.001     0.160    -0.342    -0.200     0.000     1.121     0.360     1.449     0.177     0.127     0.000     0.002     0.314     0.049     0.008     0.000     0.000     0.034    13.781     0.000     0.710     3.222     0.006 .00000E+00 .00000E+00 0.170E-05 0.404E+04 0.000E+00 0.000E+00 0.000E+00 0.000E+00 0.000E+00 0.193E-02     7.170     2.793     0.000
FRSE   11 000030004    3    0    2.47885E+00   144.700     0.000     0.000     0.000   106.915    68.590    80.217    47.513     2.488     4.138     0.207     2.138     0.000     0.000   887.606  2000.366    42.250    42.250     0.000    89.944     0.000   132.287    82.145    26.895    29.579    24.211    25.636    16.480    11.141     9.487     0.000     0.000     0.000     0.000     0.000     0.000     0.000     0.000     0.000     0.000     0.003     0.887    -0.737     0.001     0.151    -0.596     0.039     0.000     5.798     1.218     7.046     0.860     0.698     0.000     0.123     0.064     0.000     0.001     0.000     0.000     0.034     0.305     0.000     2.392     5.000     0.019 .00000E+00 .00000E+00 0.123E-05 0.404E+04 0.000E+00 0.000E+00 0.000E+00 0.000E+00 0.000E+00 0.123E+00     0.093    89.944     0.000
BARR   12 000030005    3    0    2.34885E-02   144.700     0.000     0.000     0.000   106.915    39.565    55.887    45.299     0.000     0.000     0.000     2.138     0.000     0.000   753.571  2000.000    86.506    86.506     0.000    39.851     0.000   126.356    94.811    26.895    29.579    24.211    25.586    16.480    30.064    24.422     0.000     0.000     0.000     0.000     0.000     0.000     0.000     0.000     0.000     0.000     0.000     0.872    -0.698     0.000     0.149     0.155     0.165     0.000     0.003     0.000     2.502     0.305     0.265     0.002     0.172     0.000     0.000     0.002     0.000     5.073     0.092     0.000     5.289     0.000     0.000     0.000 .00000E+00 .00000E+00 0.578E+00 0.404E+04 0.000E+00 0.000E+00 0.000E+00 0.000E+00 0.000E+00 0.172E+00     0.000    39.851     0.000
FRSD   13 000030006    3    0    2.14067E+00   144.700     0.000     0.000     0.000   106.915    56.586    83.223    58.859     1.692     2.298     0.115     2.138     0.000     0.000   801.957  2000.150    56.651    56.651     0.000    75.092     0.000   131.777    87.978    26.895    29.579    24.211    25.471    16.480     0.247     0.171     0.000     0.000     0.000     0.000     0.000     0.000     0.000     0.000     0.000     0.000     0.220     0.933    -0.702     0.190     0.159    -0.170     0.246     0.000     3.552     0.887     0.930     0.122     0.101     0.003     0.094     0.010     0.000     0.009     0.000     0.000     0.087     3.871     0.000     1.448     3.205     0.002 .00000E+00 .00000E+00 0.175E-05 0.404E+04 0.000E+00 0.000E+00 0.000E+00 0.000E+00 0.000E+00 0.943E-01     0.034    75.092     0.000
FRSD   14 000040001    4    0    2.10261E-03   144.700     0.000     0.000     0.000   106.739    52.456    15.665     0.000     1.329     2.171     0.109     2.135     0.000     0.000   848.469  2000.258   122.626   131.069     0.000     0.000     0.000   131.138    88.489    26.895    29.579    24.211    25.459    16.480     0.000     0.000     0.000     0.000     0.000     0.000     0.000     0.000     0.000     0.000     0.000     0.000     0.003     0.018    -0.014     0.003     0.003    -0.062    -0.047     0.007     0.021     0.056     0.000     0.000     0.000     0.000     0.000     0.000     0.000     0.020     0.000     7.747     0.087    21.075     0.000     0.057     0.880     0.000 .00000E+00 .00000E+00 0.224E+01 0.404E+04 0.000E+00 0.000E+00 0.000E+00 0.000E+00 0.000E+00 0.000E+00     0.070     0.000     0.000
FRSD   15 000040002    4    0    2.20522E-03   144.700     0.000     0.000     0.000   106.739    52.456    15.665     0.000     1.329     2.171     0.109     2.135     0.000     0.000   848.469  2000.258   122.626   125.991     0.000     0.000     0.000   126.060    88.489    26.895    29.579    24.211    25.459    16.480     0.000     0.000     0.000     0.000     0.000     0.000     0.000     0.000     0.000     0.000     0.000     0.000     0.003     0.018    -0.014     0.003     0.003    -0.062    -0.047     0.007     0.021     0.056     0.000     0.000     0.000     0.000     0.000     0.000     0.000     0.020     0.000     7.747     0.087    21.075     0.000     0.057     0.880     0.000 .00000E+00 .00000E+00 0.225E+01 0.404E+04 0.000E+00 0.000E+00 0.000E+00 0.000E+00 0.000E+00 0.000E+00     0.070     0.000     0.000
FRSD   16 000040003    4    0    2.10773E-01   144.700     0.000     0.000     0.000   106.739    52.447    15.659     0.000     1.329     2.170     0.109     2.135     0.000     0.000   848.461  2000.258   122.626   122.626     0.000     0.001     0.000   122.696    88.490    26.895    29.579    24.211    25.458    16.480     0.000     0.000     0.000     0.000     0.000     0.000     0.000     0.000     0.000     0.000     0.000     0.000     0.003     0.018    -0.014     0.003     0.003    -0.062    -0.047     0.007     0.021     0.056     0.000     0.000     0.000     0.000     0.000     0.000     0.000     0.019     0.000     7.753     0.087    21.075     0.000     0.057     0.880     0.000 .00000E+00 .00000E+00 0.225E+01 0.404E+04 0.000E+00 0.000E+00 0.000E+00 0.000E+00 0.000E+00 0.000E+00     0.070     0.001     0.000
FRSD   17 000040004    4    0    2.10261E-03   144.700     0.000     0.000     0.000   106.739    56.480    83.250    58.934     2.100     2.853     0.143     2.135     0.000     0.000   813.317  2000.185    56.656    56.656     0.000    74.653     0.000   131.350    87.983    26.895    29.579    24.211    25.469    16.480     0.047     0.086     0.000     0.000     0.000     0.000     0.000     0.000     0.000     0.000     0.000     0.000     0.230     0.948    -0.710     0.197     0.162    -0.176     0.215     0.000     3.598     0.896     0.264     0.034     0.027     0.003     0.096     0.013     0.000     0.011     0.000     0.000     0.087     3.754     0.000     1.463     3.219     0.002 .00000E+00 .00000E+00 0.178E-05 0.404E+04 0.000E+00 0.000E+00 0.000E+00 0.000E+00 0.000E+00 0.958E-01     0.042    74.653     0.000
FRSD   18 000040005    4    0    2.20522E-03   144.700     0.000     0.000     0.000   106.739    52.456    15.665     0.000     1.329     2.171     0.109     2.135     0.000     0.000   848.469  2000.258   122.626   130.072     0.000     0.000     0.000   130.141    88.489    26.895    29.579    24.211    25.459    16.480     0.000     0.000     0.000     0.000     0.000     0.000     0.000     0.000     0.000     0.000     0.000     0.000     0.003     0.018    -0.014     0.003     0.003    -0.062    -0.047     0.007     0.021     0.056     0.000     0.000     0.000     0.000     0.000     0.000     0.000     0.020     0.000     7.747     0.087    21.075     0.000     0.057     0.880     0.000 .00000E+00 .00000E+00 0.224E+01 0.404E+04 0.000E+00 0.000E+00 0.000E+00 0.000E+00 0.000E+00 0.000E+00     0.070     0.000     0.000
FRSD   19 000040006    4    0    2.10261E-03   144.700     0.000     0.000     0.000   106.739    52.456    15.665     0.000     1.329     2.171     0.109     2.135     0.000     0.000   848.469  2000.258   122.626   126.498     0.000     0.000     0.000   126.568    88.489    26.895    29.579    24.211    25.459    16.480     0.000     0.000     0.000     0.000     0.000     0.000     0.000     0.000     0.000     0.000     0.000     0.000     0.003     0.018    -0.014     0.003     0.003    -0.062    -0.047     0.007     0.021     0.056     0.000     0.000     0.000     0.000     0.000     0.000     0.000     0.020     0.000     7.747     0.087    21.075     0.000     0.057     0.880     0.000 .00000E+00 .00000E+00 0.225E+01 0.404E+04 0.000E+00 0.000E+00 0.000E+00 0.000E+00 0.000E+00 0.000E+00     0.070     0.000     0.000
FRSD   20 000040007    4    0    2.25651E-02   144.700     0.000     0.000     0.000   106.739    52.451    15.661     0.000     1.329     2.170     0.109     2.135     0.000     0.000   848.463  2000.258   122.626   122.626     0.000     0.000     0.000   122.696    88.490    26.895    29.579    24.211    25.458    16.480     0.000     0.000     0.000     0.000     0.000     0.000     0.000     0.000     0.000     0.000     0.000     0.000     0.003     0.018    -0.014     0.003     0.003    -0.062    -0.047     0.007     0.021     0.056     0.000     0.000     0.000     0.000     0.000     0.000     0.000     0.019     0.000     7.751     0.087    21.075     0.000     0.057     0.880     0.000 .00000E+00 .00000E+00 0.225E+01 0.404E+04 0.000E+00 0.000E+00 0.000E+00 0.000E+00 0.000E+00 0.000E+00     0.070     0.000     0.000
SWCH   21 000040008    4    0    2.14364E-02   144.700     0.000     0.000     0.000   106.739    72.271    80.615    42.619     2.490     3.399     0.170     2.135     0.000     0.000   827.720  2000.211    46.165    46.165     0.000    86.847     0.000   133.058    83.768    26.895    29.579    24.211    25.394    16.480     0.090     0.047     0.000     0.000   108.259     0.000     0.000     0.000     0.000     0.000     0.000     0.000     2.927     1.081    -0.417     0.818     0.186    -0.617     0.504     0.000    38.621     3.369     0.889     0.114     0.065     0.016     0.363     0.031     0.000     0.017     0.000     0.000     0.092     3.062     0.000     2.544     4.999     0.003 .00000E+00 .00000E+00 0.000E+00 0.404E+04 0.000E+00 0.000E+00 0.000E+00 0.000E+00 0.000E+00 0.363E+00     0.046    86.847     0.000
FRSE   22 000040009    4    0    2.10261E-03   144.700     0.000     0.000     0.000   106.739    60.293    82.153    55.817    82.455   188.816     9.441     2.135     0.000     0.000  1080.445  2026.455    42.261    58.057     0.000     0.011   183.525   248.895    82.652    26.895    29.579    24.211    25.709    16.480     0.006     0.044     0.000     0.000     0.000     0.000     0.000     0.000     0.000     0.000     0.000     0.000     0.006     0.945    -0.828     0.001     0.161    -0.351    -0.226     0.000     1.127     0.362     0.149     0.018     0.013     0.000     0.000     0.320     0.050     0.014     0.000     0.000     0.034    13.753     0.000     0.714     3.229     0.006 .00000E+00 .00000E+00 0.200E-05 0.404E+04 0.000E+00 0.000E+00 0.000E+00 0.000E+00 0.000E+00 0.307E-05     7.302     0.011     0.000
FRSE   23 000040010    4    0    2.10261E-03   144.700     0.000     0.000     0.000   106.739    60.272    82.149    55.837    80.723   184.845     9.242     2.135     0.000     0.000  1078.020  2025.883    42.253    42.784     0.000     3.345   179.618   232.890    82.652    26.895    29.579    24.211    25.709    16.480     0.133     0.131     0.000     0.000     0.000     0.000     0.000     0.000     0.000     0.000     0.000     0.000     0.005     0.937    -0.821     0.001     0.160    -0.342    -0.201     0.000     1.123     0.361     1.402     0.171     0.123     0.000     0.002     0.314     0.048     0.009     0.000     0.000     0.034    13.767     0.000     0.712     3.225     0.006 .00000E+00 .00000E+00 0.175E-05 0.404E+04 0.000E+00 0.000E+00 0.000E+00 0.000E+00 0.000E+00 0.232E-02     7.143     3.345     0.000
FRSE   24 000040011    4    0    2.38445E+00   144.700     0.000     0.000     0.000   106.739    68.472    80.246    47.607     2.588     4.303     0.215     2.135     0.000     0.000   892.551  2000.386    42.254    42.254     0.000    89.844     0.000   132.194    82.152    26.895    29.579    24.211    25.637    16.480     9.355     8.173     0.000     0.000     0.000     0.000     0.000     0.000     0.000     0.000     0.000     0.000     0.004     0.888    -0.738     0.001     0.152    -0.597     0.040     0.000     5.804     1.218     7.093     0.866     0.701     0.000     0.122     0.067     0.000     0.001     0.000     0.000     0.034     0.304     0.000     2.392     5.000     0.019 .00000E+00 .00000E+00 0.126E-05 0.404E+04 0.000E+00 0.000E+00 0.000E+00 0.000E+00 0.000E+00 0.122E+00     0.096    89.844     0.000
FRSE   25 000040012    4    0    2.30779E-03   144.700     0.000     0.000     0.000   106.739    52.529    15.717     0.000     1.334     2.152     0.108     2.135     0.000     0.000   846.089  2000.244   122.626   129.321     0.000     0.000     0.000   129.387    88.451    26.895    29.579    24.211    25.463    16.480     0.000     0.000     0.000     0.000     0.000     0.000     0.000     0.000     0.000     0.000     0.000     0.000     0.000     0.018    -0.014     0.000     0.003    -0.060    -0.047     0.007     0.019     0.052     0.000     0.000     0.000     0.000     0.000     0.000     0.000     0.020     0.000     7.747     0.034    21.147     0.000     0.053     1.047     0.000 .00000E+00 .00000E+00 0.225E+01 0.404E+04 0.000E+00 0.000E+00 0.000E+00 0.000E+00 0.000E+00 0.000E+00     0.066     0.000     0.000
FRSE   26 000040013    4    0    2.30779E-03   144.700     0.000     0.000     0.000   106.739    52.528    15.717     0.000     1.334     2.152     0.108     2.135     0.000     0.000   846.088  2000.244   122.626   124.247     0.000     0.000     0.000   124.313    88.451    26.895    29.579    24.211    25.463    16.480     0.000     0.000     0.000     0.000     0.000     0.000     0.000     0.000     0.000     0.000     0.000     0.000     0.000     0.018    -0.014     0.000     0.003    -0.060    -0.047     0.007     0.019     0.052     0.000     0.000     0.000     0.000     0.000     0.000     0.000     0.019     0.000     7.747     0.034    21.147     0.000     0.053     1.047     0.000 .00000E+00 .00000E+00 0.225E+01 0.404E+04 0.000E+00 0.000E+00 0.000E+00 0.000E+00 0.000E+00 0.000E+00     0.066     0.000     0.000
FRSE   27 000040014    4    0    2.25959E-01   144.700     0.000     0.000     0.000   106.739    52.490    15.692     0.000     1.332     2.151     0.108     2.135     0.000     0.000   846.052  2000.244   122.626   122.626     0.000     0.004     0.000   122.696    88.459    26.895    29.579    24.211    25.462    16.480     0.000     0.000     0.000     0.000     0.000     0.000     0.000     0.000     0.000     0.000     0.000     0.000     0.000     0.018    -0.014     0.000     0.003    -0.060    -0.047     0.006     0.019     0.052     0.000     0.000     0.000     0.000     0.000     0.000     0.000     0.019     0.000     7.771     0.034    21.147     0.000     0.053     1.047     0.000 .00000E+00 .00000E+00 0.225E+01 0.404E+04 0.000E+00 0.000E+00 0.000E+00 0.000E+00 0.000E+00 0.000E+00     0.066     0.004     0.000
FRSD   28 000040015    4    0    2.22573E-02   144.700     0.000     0.000     0.000   106.739    56.473    83.251    58.944     2.055     2.792     0.140     2.135     0.000     0.000   812.051  2000.182    56.655    56.655     0.000    74.699     0.000   131.396    87.983    26.895    29.579    24.211    25.470    16.480     0.084     0.095     0.000     0.000     0.000     0.000     0.000     0.000     0.000     0.000     0.000     0.000     0.227     0.942    -0.707     0.195     0.161    -0.172     0.227     0.000     3.580     0.893     0.415     0.054     0.043     0.003     0.095     0.013     0.000     0.010     0.000     0.000     0.087     3.799     0.000     1.457     3.214     0.002 .00000E+00 .00000E+00 0.179E-05 0.404E+04 0.000E+00 0.000E+00 0.000E+00 0.000E+00 0.000E+00 0.950E-01     0.041    74.699     0.000
BARR   29 000040016    4    0    2.14570E-01   144.700     0.000     0.000     0.000   106.739    39.521    55.910    45.329     0.000     0.000     0.000     2.135     0.000     0.000   753.332  2000.000    86.511    86.511     0.000    39.860     0.000   126.370    94.812    26.895    29.579    24.211    25.587    16.480    27.693    18.956     0.000     0.000     0.000     0.000     0.000     0.000     0.000     0.000     0.000     0.000     0.000     0.872    -0.698     0.000     0.149     0.155     0.166     0.000     0.003     0.000     2.764     0.337     0.292     0.002     0.172     0.000     0.000     0.002     0.000     5.020     0.092     0.000     5.285     0.000     0.000     0.000 .00000E+00 .00000E+00 0.575E+00 0.404E+04 0.000E+00 0.000E+00 0.000E+00 0.000E+00 0.000E+00 0.172E+00     0.000    39.860     0.000
BARR   30 000040017    4    0    2.12312E-02   144.700     0.000     0.000     0.000   106.739    34.665     4.652     0.000     0.300     0.821     0.041     2.135     0.000     0.000   774.627  2000.074   122.626   122.626     0.000     0.000     0.000   122.647    92.169    26.895    29.579    24.211    24.746    16.480     0.000     0.000     0.000     0.000     0.000     0.000     0.000     0.000     0.000     0.000     0.000     0.000     0.000     0.013    -0.010     0.000     0.002    -0.027    -0.027     0.009     0.001     0.000     0.000     0.000     0.000     0.000     0.000     0.000     0.000     0.020     0.000    15.545     0.092     0.000     3.387     0.000     0.000     0.000 .00000E+00 .00000E+00 0.247E+01 0.404E+04 0.000E+00 0.000E+00 0.000E+00 0.000E+00 0.000E+00 0.000E+00     0.020     0.000     0.000
FRSE   31 000050001    5    0    2.11379E+00   144.700     0.000     0.000     0.000   106.674    68.429    80.257    47.641     2.886     4.817     0.241     2.133     0.000     0.000   903.010  2000.430    42.256    42.256     0.000    89.508     0.000   131.873    82.155    26.895    29.579    24.211    25.637    16.480     6.558     6.628     0.000     0.000     0.000     0.000     0.000     0.000     0.000     0.000     0.000     0.000     0.005     0.891    -0.739     0.001     0.152    -0.600     0.041     0.000     5.827     1.219     7.026     0.858     0.691     0.000     0.120     0.078     0.000     0.001     0.000     0.000     0.034     0.296     0.000     2.394     5.000     0.019 .00000E+00 .00000E+00 0.128E-05 0.404E+04 0.000E+00 0.000E+00 0.000E+00 0.000E+00 0.000E+00 0.120E+00     0.108    89.508     0.000
FRSE   32 000050002    5    0    2.10260E-03   144.700     0.000     0.000     0.000   106.674    52.486    15.698     0.000     1.332     2.150     0.107     2.133     0.000     0.000   845.993  2000.244   122.626   127.496     0.000     0.000     0.000   127.562    88.455    26.895    29.579    24.211    25.463    16.480     0.000     0.000     0.000     0.000     0.000     0.000     0.000     0.000     0.000     0.000     0.000     0.000     0.000     0.018    -0.014     0.000     0.003    -0.060    -0.047     0.007     0.019     0.052     0.000     0.000     0.000     0.000     0.000     0.000     0.000     0.020     0.000     7.755     0.034    21.147     0.000     0.053     1.047     0.000 .00000E+00 .00000E+00 0.225E+01 0.404E+04 0.000E+00 0.000E+00 0.000E+00 0.000E+00 0.000E+00 0.000E+00     0.066     0.000     0.000
FRSE   33 000050003    5    0    2.76952E-02   144.700     0.000     0.000     0.000   106.674    52.486    15.698     0.000     1.332     2.150     0.107     2.133     0.000     0.000   845.993  2000.244   122.626   125.754     0.000     0.000     0.000   125.819    88.455    26.895    29.579    24.211    25.463    16.480     0.000     0.000     0.000     0.000     0.000     0.000     0.000     0.000     0.000     0.000     0.000     0.000     0.000     0.018    -0.014     0.000     0.003    -0.060    -0.047     0.007     0.019     0.052     0.000     0.000     0.000     0.000     0.000     0.000     0.000     0.020     0.000     7.755     0.034    21.147     0.000     0.053     1.047     0.000 .00000E+00 .00000E+00 0.225E+01 0.404E+04 0.000E+00 0.000E+00 0.000E+00 0.000E+00 0.000E+00 0.000E+00     0.066     0.000     0.000
FRSE   34 000050004    5    0    2.21444E-01   144.700     0.000     0.000     0.000   106.674    52.454    15.677     0.000     1.331     2.149     0.107     2.133     0.000     0.000   845.964  2000.243   122.626   122.626     0.000     0.003     0.000   122.695    88.460    26.895    29.579    24.211    25.462    16.480     0.000     0.000     0.000     0.000     0.000     0.000     0.000     0.000     0.000     0.000     0.000     0.000     0.000     0.018    -0.014     0.000     0.003    -0.060    -0.047     0.006     0.019     0.052     0.000     0.000     0.000     0.000     0.000     0.000     0.000     0.019     0.000     7.774     0.034    21.147     0.000     0.053     1.047     0.000 .00000E+00 .00000E+00 0.225E+01 0.404E+04 0.000E+00 0.000E+00 0.000E+00 0.000E+00 0.000E+00 0.000E+00     0.066     0.003     0.000
FRSE   35 000050005    5    0    2.12312E-02   144.700     0.000     0.000     0.000   106.674    68.426    80.269    47.645     8.851    17.147     0.857     2.133     0.000     0.000  1002.887  2001.964    56.637    56.637     0.000    66.299    14.859   138.316    87.424    26.895    29.579    24.211    25.639    16.480     1.909     0.717     0.000     0.000     0.000     0.000     0.000     0.000     0.000     0.000     0.000     0.000     0.008     0.894    -0.764     0.002     0.153    -0.596     0.014     0.000     4.190     1.105     5.716     0.698     0.551     0.000     0.110     0.279     0.002     0.003     0.000     0.000     0.034     1.872     0.000     2.157     5.000     0.018 .00000E+00 .00000E+00 0.524E-05 0.404E+04 0.000E+00 0.000E+00 0.000E+00 0.000E+00 0.000E+00 0.110E+00     0.520    66.299     0.000
FRSE   36 000050006    5    0    2.15390E-02   144.700     0.000     0.000     0.000   106.674    52.486    15.698     0.000     1.332     2.150     0.107     2.133     0.000     0.000   845.993  2000.244   122.626   128.253     0.000     0.000     0.000   128.319    88.455    26.895    29.579    24.211    25.463    16.480     0.000     0.000     0.000     0.000     0.000     0.000     0.000     0.000     0.000     0.000     0.000     0.000     0.000     0.018    -0.014     0.000     0.003    -0.060    -0.047     0.007     0.019     0.052     0.000     0.000     0.000     0.000     0.000     0.000     0.000     0.020     0.000     7.755     0.034    21.147     0.000     0.053     1.047     0.000 .00000E+00 .00000E+00 0.225E+01 0.404E+04 0.000E+00 0.000E+00 0.000E+00 0.000E+00 0.000E+00 0.000E+00     0.066     0.000     0.000
FRSE   37 000050007    5    0    2.83108E-02   144.700     0.000     0.000     0.000   106.674    52.486    15.698     0.000     1.332     2.150     0.107     2.133     0.000     0.000   845.993  2000.244   122.626   125.885     0.000     0.000     0.000   125.951    88.455    26.895    29.579    24.211    25.463    16.480     0.000     0.000     0.000     0.000     0.000     0.000     0.000     0.000     0.000     0.000     0.000     0.000     0.000     0.018    -0.014     0.000     0.003    -0.060    -0.047     0.007     0.019     0.052     0.000     0.000     0.000     0.000     0.000     0.000     0.000     0.020     0.000     7.755     0.034    21.147     0.000     0.053     1.047     0.000 .00000E+00 .00000E+00 0.225E+01 0.404E+04 0.000E+00 0.000E+00 0.000E+00 0.000E+00 0.000E+00 0.000E+00     0.066     0.000     0.000
FRSE   38 000050008    5    0    2.10260E-01   144.700     0.000     0.000     0.000   106.674    52.484    15.696     0.000     1.332     2.150     0.107     2.133     0.000     0.000   845.992  2000.244   122.626   122.701     0.000     0.000     0.000   122.767    88.455    26.895    29.579    24.211    25.463    16.480     0.000     0.000     0.000     0.000     0.000     0.000     0.000     0.000     0.000     0.000     0.000     0.000     0.000     0.018    -0.014     0.000     0.003    -0.060    -0.047     0.007     0.019     0.052     0.000     0.000     0.000     0.000     0.000     0.000     0.000     0.019     0.000     7.756     0.034    21.147     0.000     0.053     1.047     0.000 .00000E+00 .00000E+00 0.225E+01 0.404E+04 0.000E+00 0.000E+00 0.000E+00 0.000E+00 0.000E+00 0.000E+00     0.066     0.000     0.000
FRSE   39 000050009    5    0    2.20521E-03   144.700     0.000     0.000     0.000   106.674    65.693    80.876    50.396    30.293    65.100     3.255     2.133     0.000     0.000  1021.214  2008.575    56.637    56.637     0.000    48.231    61.653   168.860    87.546    26.895    29.579    24.211    25.676    16.480     1.632     0.487     0.000     0.000     0.000     0.000     0.000     0.000     0.000     0.000     0.000     0.000     0.005     0.893    -0.781     0.001     0.152    -0.345    -0.018     0.000     1.777     0.555     5.127     0.626     0.497     0.000     0.049     0.309     0.016     0.003     0.000     0.000     0.034    10.243     0.000     1.085     4.367     0.009 .00000E+00 .00000E+00 0.625E-05 0.404E+04 0.000E+00 0.000E+00 0.000E+00 0.000E+00 0.000E+00 0.494E-01     2.339    48.231     0.000
FRSE   40 000050010    5    0    2.10260E-03   144.700     0.000     0.000     0.000   106.674    52.486    15.698     0.000     1.332     2.150     0.107     2.133     0.000     0.000   845.993  2000.244   122.626   127.840     0.000     0.000     0.000   127.906    88.455    26.895    29.579    24.211    25.463    16.480     0.000     0.000     0.000     0.000     0.000     0.000     0.000     0.000     0.000     0.000     0.000     0.000     0.000     0.018    -0.014     0.000     0.003    -0.060    -0.047     0.007     0.019     0.052     0.000     0.000     0.000     0.000     0.000     0.000     0.000     0.020     0.000     7.755     0.034    21.147     0.000     0.053     1.047     0.000 .00000E+00 .00000E+00 0.225E+01 0.404E+04 0.000E+00 0.000E+00 0.000E+00 0.000E+00 0.000E+00 0.000E+00     0.066     0.000     0.000
FRSE   41 000050011    5    0    2.27703E-02   144.700     0.000     0.000     0.000   106.674    52.486    15.698     0.000     1.332     2.150     0.107     2.133     0.000     0.000   845.993  2000.244   122.626   124.480     0.000     0.000     0.000   124.545    88.455    26.895    29.579    24.211    25.463    16.480     0.000     0.000     0.000     0.000     0.000     0.000     0.000     0.000     0.000     0.000     0.000     0.000     0.000     0.018    -0.014     0.000     0.003    -0.060    -0.047     0.007     0.019     0.052     0.000     0.000     0.000     0.000     0.000     0.000     0.000     0.019     0.000     7.755     0.034    21.147     0.000     0.053     1.047     0.000 .00000E+00 .00000E+00 0.225E+01 0.404E+04 0.000E+00 0.000E+00 0.000E+00 0.000E+00 0.000E+00 0.000E+00     0.066     0.000     0.000
FRSE   42 000050012    5    0    2.49249E-02   144.700     0.000     0.000     0.000   106.674    52.484    15.696     0.000     1.332     2.150     0.107     2.133     0.000     0.000   845.992  2000.244   122.626   122.696     0.000     0.000     0.000   122.762    88.455    26.895    29.579    24.211    25.463    16.480     0.000     0.000     0.000     0.000     0.000     0.000     0.000     0.000     0.000     0.000     0.000     0.000     0.000     0.018    -0.014     0.000     0.003    -0.060    -0.047     0.007     0.019     0.052     0.000     0.000     0.000     0.000     0.000     0.000     0.000     0.019     0.000     7.756     0.034    21.147     0.000     0.053     1.047     0.000 .00000E+00 .00000E+00 0.225E+01 0.404E+04 0.000E+00 0.130E+03 0.195E+04 0.000E+00 0.000E+00 0.000E+00     0.066     0.000     0.000
FRSE    1 000010001    1    0    3.10260E-03    93.800     0.000     0.000     0.000   115.374    79.878    53.426    69.634     0.000    87.262     4.363     2.307     0.000     0.000  1020.318  2023.043     0.075     0.075     0.000     0.003   140.712   148.565    75.270    26.877    29.777    23.977    25.651    16.583     0.000     0.000     0.000     0.000     0.000     0.000     0.000     0.000     0.000     0.000     0.000     0.000     0.005     0.894    -0.916     0.001     0.153    -0.159    -0.195     0.000     0.891     0.204     0.000     0.000     0.000     0.000     0.000     0.000     0.020     0.000     0.000     0.000     0.047    16.863     0.000     2.263     3.230     1.043 .00000E+00 .00000E+00 0.239E+01 0.404E+04 0.000E+00 0.000E+00 0.000E+00 0.000E+00 0.000E+00 0.000E+00     7.776     0.003     0.000
FRSE    2 000010002    1    0    3.10260E-03    93.800     0.000     0.000     0.000   115.374    79.820    53.288    69.094     0.000    85.277     4.264     2.307     0.000     0.000  1019.025  2022.506     0.071     0.071     0.000     0.655   137.496   145.816    75.239    26.877    29.777    23.977    25.651    16.583     0.000     0.000     0.000     0.000     0.000     0.000     0.000     0.000     0.000     0.000     0.000     0.000     0.004     0.885    -0.907     0.001     0.151    -0.156    -0.175     0.000     0.881     0.203     0.000     0.000     0.000     0.000     0.000     0.000     0.019     0.000     0.000     0.000     0.047    16.943     0.000     2.251     3.225     1.037 .00000E+00 .00000E+00 0.239E+01 0.404E+04 0.000E+00 0.000E+00 0.000E+00 0.000E+00 0.000E+00 0.181E-03     7.594     0.655     0.000
FRSE    3 000010003    1    0    3.11922E+00    93.800     0.000     0.000     0.000   115.374    84.620    28.550    19.913     0.000     4.931     0.247     2.307     0.000     0.000  1000.000  2001.050     0.000     0.000     0.000    36.830     4.846    42.025    66.389    26.877    29.777    23.977    25.033    16.583     0.000     0.000     0.000     0.000     0.000     0.000     0.000     0.000     0.000     0.000     0.000     0.000     0.005     0.706    -0.832     0.001     0.121    -0.387    -0.465     0.000     0.710     0.174     0.000     0.000     0.000     0.000     0.000     0.000     0.000     0.000     0.000     0.813     0.047     5.829     0.000     5.285     5.000     2.435 .00000E+00 .00000E+00 0.239E+01 0.404E+04 0.000E+00 0.000E+00 0.000E+00 0.000E+00 0.000E+00 0.495E-03     0.349    36.830     0.000
FRSE    4 000020001    2    0    3.93882E-01    93.800     0.000     0.000     0.000   115.272    83.209    27.607    17.835     0.000     2.160     0.108     2.305     0.000     0.000   897.257  2000.385     0.000     0.000     0.000    40.360     0.000    40.487    65.951    26.877    29.777    23.977    24.992    16.583     0.000     0.000     0.000     0.000     0.000     0.000     0.000     0.000     0.000     0.000     0.000     0.000     0.004     0.693    -0.818     0.001     0.118    -0.469    -0.500     0.000     0.698     0.237     0.000     0.000     0.000     0.000     0.000     0.000     0.000     0.000     0.000     1.117     0.047     2.739     0.000     5.780     5.000     2.663 .00000E+00 .00000E+00 0.239E+01 0.404E+04 0.000E+00 0.000E+00 0.000E+00 0.000E+00 0.000E+00 0.256E-03     0.127    40.360     0.000
FRSE    5 000020002    2    0    3.66692E-02    93.800     0.000     0.000     0.000   115.272    64.931     3.358     0.095     0.247     1.146     0.057     2.305     0.000     0.000   844.798  2000.225    28.522    28.522     0.000     0.004     0.000    28.601    80.126    26.877    29.777    23.977    24.572    16.583     0.000     0.000     0.000     0.000     0.000     0.000     0.000     0.000     0.000     0.000     0.000     0.000     0.000     0.011    -0.016     0.000     0.002    -0.021    -0.036     0.001     0.010     0.000     0.000     0.000     0.000     0.000     0.000     0.000     0.000     0.005     0.000    13.764     0.047    30.856     0.000     0.061     1.047     0.028 .00000E+00 .00000E+00 0.249E+01 0.404E+04 0.000E+00 0.000E+00 0.000E+00 0.000E+00 0.000E+00 0.000E+00     0.076     0.004     0.000
FRSE    6 000020003    2    0    3.40015E-02    93.800     0.000     0.000     0.000   115.272    64.933     3.359     0.095     0.247     1.147     0.057     2.305     0.000     0.000   844.831  2000.225    28.525    28.525     0.000     0.000     0.000    28.600    80.127    26.877    29.777    23.977    24.572    16.583     0.000     0.000     0.000     0.000     0.000     0.000     0.000     0.000     0.000     0.000     0.000     0.000     0.000     0.011    -0.016     0.000     0.002    -0.021    -0.036     0.001     0.010     0.000     0.000     0.000     0.000     0.000     0.000     0.000     0.000     0.005     0.000    13.763     0.047    30.856     0.000     0.061     1.047     0.028 .00000E+00 .00000E+00 0.249E+01 0.404E+04 0.000E+00 0.000E+00 0.000E+00 0.000E+00 0.000E+00 0.000E+00     0.076     0.000     0.000
FRSE    7 000020004    2    0    3.21547E-02    93.800     0.000     0.000     0.000   115.272    64.933     3.359     0.095     0.247     1.147     0.057     2.305     0.000     0.000   844.826  2000.225    28.524    28.524     0.000     0.000     0.000    28.600    80.127    26.877    29.777    23.977    24.572    16.583     0.000     0.000     0.000     0.000     0.000     0.000     0.000     0.000     0.000     0.000     0.000     0.000     0.000     0.011    -0.016     0.000     0.002    -0.021    -0.036     0.001     0.010     0.000     0.000     0.000     0.000     0.000     0.000     0.000     0.000     0.005     0.000    13.763     0.047    30.856     0.000     0.061     1.047     0.028 .00000E+00 .00000E+00 0.249E+01 0.404E+04 0.000E+00 0.000E+00 0.000E+00 0.000E+00 0.000E+00 0.000E+00     0.076     0.000     0.000
SWCH    8 000030001    3    0    3.61561E-03    93.800     0.000     0.000     0.000   115.519    88.173    22.618    16.996     0.000    11.173     0.559     2.310     0.000     0.000  1000.000  2002.472     0.000     0.000     0.000    31.263    15.274    47.360    66.154    26.877    29.777    23.977    24.647    16.583     0.000     0.000     0.000     0.000     3.007     0.000     0.000     0.000     0.000     0.000     0.000     0.000     3.005     0.863    -0.499     0.815     0.148    -4.853    -2.465     0.000    82.446     5.172     0.000     0.000     0.000     0.000     2.257     0.000     0.002     0.000     0.000     3.878     0.111    10.725     0.000     8.205     5.130     0.284 .00000E+00 .00000E+00 0.239E+01 0.404E+04 0.000E+00 0.000E+00 0.000E+00 0.000E+00 0.000E+00 0.226E+01     0.822    31.263     0.000
FRSE    9 000030002    3    0    3.20522E-03    93.800     0.000     0.000     0.000   115.519    79.958    53.321    69.434     0.000    87.028     4.351     2.310     0.000     0.000  1020.170  2022.985     0.073     0.073     0.000     0.101   140.335   148.264    75.240    26.877    29.777    23.977    25.650    16.583     0.000     0.000     0.000     0.000     0.000     0.000     0.000     0.000     0.000     0.000     0.000     0.000     0.005     0.892    -0.915     0.001     0.152    -0.158    -0.191     0.000     0.889     0.204     0.000     0.000     0.000     0.000     0.000     0.000     0.020     0.000     0.000     0.000     0.047    16.885     0.000     2.259     3.228     1.041 .00000E+00 .00000E+00 0.239E+01 0.404E+04 0.000E+00 0.000E+00 0.000E+00 0.000E+00 0.000E+00 0.366E-04     7.756     0.101     0.000
FRSE   10 000030003    3    0    3.71822E-03    93.800     0.000     0.000     0.000   115.519    79.908    53.247    69.101     0.000    85.725     4.286     2.310     0.000     0.000  1019.324  2022.627     0.071     0.071     0.000     0.505   138.223   146.435    75.225    26.877    29.777    23.977    25.651    16.583     0.000     0.000     0.000     0.000     0.000     0.000     0.000     0.000     0.000     0.000     0.000     0.000     0.004     0.884    -0.908     0.001     0.151    -0.156    -0.175     0.000     0.881     0.203     0.000     0.000     0.000     0.000     0.000     0.000     0.019     0.000     0.000     0.000     0.047    16.950     0.000     2.249     3.223     1.036 .00000E+00 .00000E+00 0.239E+01 0.404E+04 0.000E+00 0.000E+00 0.000E+00 0.000E+00 0.000E+00 0.140E-03     7.636     0.505     0.000
[...]
FRSD   20 000040007    4    0  4.0.25651E-02  3445.525     0.000     0.000     0.000  1685.557  1107.779    10.203     7.180    11.624    11.668     0.583    33.711     0.000     0.000   758.675  2000.124  2324.902  2324.902     0.000     0.004     0.000  2325.506    88.887    26.585    28.867    24.303    25.103    17.431     0.000     0.000     0.000     0.000     0.000     0.000     0.000     0.000     0.000     0.000     0.000     0.000     0.018     0.203    -0.186     0.018     0.035    -0.337    -0.316     0.136     0.068     0.032     0.000     0.000     0.000     0.012     0.000     0.002     0.000     0.365     0.000    25.826     0.385   102.279     0.020     0.090     1.082     0.063 .00000E+00 .00000E+00 0.250E+01 0.000E+00 0.000E+00 0.000E+00 0.000E+00 0.000E+00 0.000E+00 0.000E+00     0.600     0.004     0.000
SWCH   21 000040008    4    0  4.0.14364E-02  3445.525     0.000     0.000     0.000  1685.557   951.602    50.608    81.406     4.553     4.554     0.228    23.708     0.000     0.000   750.000  2000.023   757.439   757.439     0.000  1731.289     0.000  2488.956    75.404    26.585    28.867    24.303    24.631    17.431     0.641     1.190     0.000     0.000   146.538     0.000     0.000     0.000     0.000     0.000     0.000     0.000    31.923    12.553    -5.705     7.932     2.157   -30.335   -26.008     0.000   134.483    39.456     7.970     1.031     0.523     1.722    15.734     0.027     0.000     0.193     0.000    26.089     0.888    76.382     0.000    33.430     5.597    21.648 .00000E+00 .00000E+00 0.418E-01 0.000E+00 0.000E+00 0.000E+00 0.000E+00 0.000E+00 0.000E+00 0.157E+02     0.228  1731.289     0.000
FRSE   22 000040009    4    0  4.0.10261E-03  3445.525     0.000     0.000     0.000  1685.557   996.996    86.147    90.431  1439.850  1427.105    71.355    33.711     0.000     0.000  1049.287  2015.361  1009.524  1007.683     0.000     0.104  1324.961  2405.504    83.482    26.585    28.867    24.303    25.752    17.431     0.030     0.346     0.000     0.000     0.000     0.000     0.000     0.000     0.000     0.000     0.000     0.000     0.536    12.820   -11.266     0.145     2.187    -1.396    -1.184     0.000     3.068     0.832     0.702     0.086     0.059     0.021     0.000    10.273     0.269     0.247     0.000     0.000     0.074    34.448     0.000     3.580     3.444     2.506 .00000E+00 .00000E+00 0.149E+00 0.000E+00 0.000E+00 0.000E+00 0.000E+00 0.000E+00 0.000E+00 0.119E-03    72.755     0.104     0.000
FRSE   23 000040010    4    0  4.0.10261E-03  3445.525     0.000     0.000     0.000  1685.557   996.572    86.117    90.430  1407.663  1395.179    69.759    33.711     0.000     0.000  1048.080  2015.010  1009.120  1009.112     0.000    32.824  1294.430  2407.498    83.476    26.585    28.867    24.303    25.752    17.431     0.821     1.385     0.000     0.000     0.000     0.000     0.000     0.000     0.000     0.000     0.000     0.000     0.530    12.683   -11.148     0.144     2.164    -1.285    -1.024     0.000     3.041     0.825    10.649     1.299     0.917     0.019     0.037    10.043     0.258     0.199     0.000     0.000     0.074    34.633     0.000     3.554     3.433     2.488 .00000E+00 .00000E+00 0.934E-01 0.000E+00 0.000E+00 0.000E+00 0.000E+00 0.000E+00 0.000E+00 0.368E-01    71.131    32.824     0.000
FRSE   24 000040011    4    0  4.0.38445E+00  3445.525     0.000     0.000     0.000  1685.557   917.173    74.428    90.322    13.035    13.192     0.660    33.711     0.000     0.000   805.145  2000.081   893.686   893.686     0.000  1619.790     0.000  2514.157    80.687    26.585    28.867    24.303    25.567    17.431    39.374    32.432     0.000     0.000     0.000     0.000     0.000     0.000     0.000     0.000     0.000     0.000     1.228    11.560    -9.969     0.287     1.972     0.337     0.711     0.000     7.414     1.731    43.071     5.270     4.204     0.037     1.616     0.134     0.000     0.025     0.000     3.666     0.074     6.860     0.000     7.442     5.000     5.210 .00000E+00 .00000E+00 0.566E-01 0.000E+00 0.000E+00 0.000E+00 0.000E+00 0.000E+00 0.000E+00 0.162E+01     0.681  1619.790     0.000
FRSE   25 000040012    4    0  4.0.30779E-03  3445.525     0.000     0.000     0.000  1685.557  1106.566    10.205     7.179    11.614    11.631     0.582    33.711     0.000     0.000   756.240  2000.120  2326.155  2325.892     0.000     0.000     0.000  2326.486    88.982    26.585    28.867    24.303    25.112    17.431     0.000     0.000     0.000     0.000     0.000     0.000     0.000     0.000     0.000     0.000     0.000     0.000     0.008     0.201    -0.188     0.016     0.034    -0.338    -0.317     0.154     0.040     0.029     0.000     0.000     0.000     0.012     0.000     0.002     0.000     0.366     0.000    15.745     0.074    63.281     0.039     0.066     1.094     0.046 .00000E+00 .00000E+00 0.250E+01 0.000E+00 0.000E+00 0.000E+00 0.000E+00 0.000E+00 0.000E+00 0.000E+00     0.595     0.000     0.000
FRSE   26 000040013    4    0  4.0.30779E-03  3445.525     0.000     0.000     0.000  1685.557  1106.566    10.205     7.179    11.614    11.631     0.582    33.711     0.000     0.000   756.239  2000.120  2326.155  2326.146     0.000     0.000     0.000  2326.741    88.982    26.585    28.867    24.303    25.112    17.431     0.000     0.000     0.000     0.000     0.000     0.000     0.000     0.000     0.000     0.000     0.000     0.000     0.008     0.201    -0.188     0.016     0.034    -0.338    -0.317     0.154     0.040     0.029     0.000     0.000     0.000     0.012     0.000     0.002     0.000     0.366     0.000    15.745     0.074    63.281     0.039     0.066     1.094     0.046 .00000E+00 .00000E+00 0.250E+01 0.000E+00 0.000E+00 0.000E+00 0.000E+00 0.000E+00 0.000E+00 0.000E+00     0.595     0.000     0.000
FRSE   27 000040014    4    0  4.0.25959E-01  3445.525     0.000     0.000     0.000  1685.557  1106.494    10.201     7.176    11.609    11.626     0.581    33.711     0.000     0.000   756.186  2000.120  2326.050  2326.051     0.000     0.061     0.000  2326.706    88.981    26.585    28.867    24.303    25.112    17.431     0.000     0.000     0.000     0.000     0.000     0.000     0.000     0.000     0.000     0.000     0.000     0.000     0.008     0.201    -0.188     0.016     0.034    -0.338    -0.317     0.154     0.040     0.029     0.000     0.000     0.000     0.012     0.000     0.002     0.000     0.366     0.000    15.752     0.074    63.281     0.039     0.066     1.094     0.046 .00000E+00 .00000E+00 0.250E+01 0.000E+00 0.000E+00 0.000E+00 0.000E+00 0.000E+00 0.000E+00 0.000E+00     0.594     0.061     0.000
FRSD   28 000040015    4    0  4.0.22573E-02  3445.525     0.000     0.000     0.000  1685.557   925.922    65.974    78.099     4.283     4.283     0.214    19.706     0.000     0.000   750.000  2000.034  1130.855  1130.856     0.000  1385.519     0.000  2516.588    84.736    26.585    28.867    24.303    25.400    17.431     8.588     9.909     0.000     0.000     0.000     0.000     0.000     0.000     0.000     0.000     0.000     0.000     1.674    11.530    -9.689     0.612     1.969     0.317     0.629     0.000     8.168     2.055    39.192     4.890     3.916     0.069     1.330     0.016     0.000     0.088     0.000     2.522     0.385    27.306     0.000     8.763     4.877     6.134 .00000E+00 .00000E+00 0.963E-01 0.000E+00 0.000E+00 0.000E+00 0.000E+00 0.000E+00 0.000E+00 0.133E+01     0.213  1385.519     0.000
BARR   29 000040016    4    0  4.0.14570E-01  3445.525     0.000     0.000     0.000  1685.557   782.544    44.493    49.927     0.000     0.000     0.000     1.953     0.000     0.000   750.000  2000.000  1895.867  1895.867     0.000   766.569     0.000  2662.436    93.793    26.585    28.867    24.303    25.519    17.431   509.841   311.759     0.000     0.000     0.000     0.000     0.000     0.000     0.000     0.000     0.000     0.000     0.017    10.529    -9.403     0.005     1.797     1.802     1.886     0.000     0.017     0.004    49.848     6.075     5.173     0.236     1.474     0.000     0.000     0.016     0.000    31.861     0.888     0.000     6.062     0.001     0.000     0.000 .00000E+00 .00000E+00 0.682E+00 0.000E+00 0.000E+00 0.000E+00 0.000E+00 0.000E+00 0.000E+00 0.147E+01     0.000   766.569     0.000
BARR   30 000040017    4    0  4.0.12312E-02  3445.525     0.000     0.000     0.000  1685.557   842.390     3.594     8.961     2.784     2.767     0.138     9.549     0.000     0.000   750.000  2000.024  2598.923  2598.923     0.000     0.006     0.000  2599.070    95.185    26.585    28.867    24.303    24.565    17.431     0.000     0.000     0.000     0.000     0.000     0.000     0.000     0.000     0.000     0.000     0.000     0.000     0.015     0.148    -0.131     0.004     0.025    -0.378    -0.355     0.065     0.015     0.003     0.000     0.000     0.000     0.081     0.000     0.000     0.000     0.418     0.000    94.410     0.888     0.000     5.747     0.001     0.000     0.000 .00000E+00 .00000E+00 0.250E+01 0.000E+00 0.000E+00 0.000E+00 0.000E+00 0.000E+00 0.000E+00 0.000E+00     0.140     0.006     0.000
FRSE   31 000050001    5    0  4.0.11379E+00  3445.525     0.000     0.000     0.000  1685.676   917.299    74.509    90.318    14.761    14.916     0.746    33.714     0.000     0.000   821.268  2000.089   894.674   894.674     0.000  1616.951     0.000  2512.395    80.705    26.585    28.867    24.303    25.567    17.431    27.598    26.266     0.000     0.000     0.000     0.000     0.000     0.000     0.000     0.000     0.000     0.000     1.247    11.597    -9.992     0.290     1.979     0.332     0.705     0.000     7.449     1.734    42.135     5.154     4.085     0.038     1.613     0.159     0.000     0.029     0.000     3.658     0.074     6.739     0.000     7.458     5.000     5.221 .00000E+00 .00000E+00 0.560E-01 0.000E+00 0.000E+00 0.000E+00 0.000E+00 0.000E+00 0.000E+00 0.161E+01     0.771  1616.951     0.000
FRSE   32 000050002    5    0  4.0.10260E-03  3445.525     0.000     0.000     0.000  1685.676  1106.493    10.204     7.178    11.613    11.629     0.581    33.714     0.000     0.000   756.132  2000.120  2326.231  2326.094     0.000     0.000     0.000  2326.688    88.984    26.585    28.867    24.303    25.112    17.431     0.000     0.000     0.000     0.000     0.000     0.000     0.000     0.000     0.000     0.000     0.000     0.000     0.008     0.201    -0.188     0.016     0.034    -0.338    -0.317     0.154     0.041     0.029     0.000     0.000     0.000     0.012     0.000     0.002     0.000     0.366     0.000    15.753     0.074    63.281     0.032     0.066     1.094     0.046 .00000E+00 .00000E+00 0.250E+01 0.000E+00 0.000E+00 0.000E+00 0.000E+00 0.000E+00 0.000E+00 0.000E+00     0.595     0.000     0.000
FRSE   33 000050003    5    0  4.0.76952E-02  3445.525     0.000     0.000     0.000  1685.676  1106.493    10.204     7.178    11.612    11.629     0.581    33.714     0.000     0.000   756.132  2000.120  2326.231  2326.180     0.000     0.000     0.000  2326.775    88.984    26.585    28.867    24.303    25.112    17.431     0.000     0.000     0.000     0.000     0.000     0.000     0.000     0.000     0.000     0.000     0.000     0.000     0.008     0.201    -0.188     0.016     0.034    -0.338    -0.317     0.154     0.041     0.029     0.000     0.000     0.000     0.012     0.000     0.002     0.000     0.366     0.000    15.753     0.074    63.281     0.032     0.066     1.094     0.046 .00000E+00 .00000E+00 0.250E+01 0.000E+00 0.000E+00 0.000E+00 0.000E+00 0.000E+00 0.000E+00 0.000E+00     0.595     0.000     0.000
FRSE   34 000050004    5    0  4.0.21444E-01  3445.525     0.000     0.000     0.000  1685.676  1106.435    10.201     7.176    11.609    11.625     0.581    33.714     0.000     0.000   756.090  2000.120  2326.146  2326.146     0.000     0.049     0.000  2326.791    88.983    26.585    28.867    24.303    25.112    17.431     0.000     0.000     0.000     0.000     0.000     0.000     0.000     0.000     0.000     0.000     0.000     0.000     0.008     0.201    -0.188     0.016     0.034    -0.338    -0.317     0.154     0.041     0.029     0.000     0.000     0.000     0.012     0.000     0.002     0.000     0.366     0.000    15.759     0.074    63.281     0.032     0.066     1.094     0.046 .00000E+00 .00000E+00 0.250E+01 0.000E+00 0.000E+00 0.000E+00 0.000E+00 0.000E+00 0.000E+00 0.000E+00     0.594     0.049     0.000
FRSE   35 000050005    5    0  4.0.12312E-02  3445.525     0.000     0.000     0.000  1685.676   956.023    80.402    90.356    84.258    83.205     4.160    33.714     0.000     0.000   994.625  2000.685  1288.819  1288.819     0.000  1115.376    46.904  2455.406    87.299    26.585    28.867    24.303    25.623    17.431     9.467    12.391     0.000     0.000     0.000     0.000     0.000     0.000     0.000     0.000     0.000     0.000     1.082    11.916   -10.330     0.270     2.033     0.290     0.635     0.000     6.328     1.580    37.543     4.589     3.558     0.056     1.573     1.459     0.003     0.066     0.000     2.627     0.074    12.379     0.000     6.784     5.000     4.749 .00000E+00 .00000E+00 0.165E+00 0.000E+00 0.000E+00 0.000E+00 0.000E+00 0.000E+00 0.000E+00 0.157E+01     4.307  1115.376     0.000
FRSE   36 000050006    5    0  4.0.15390E-02  3445.525     0.000     0.000     0.000  1685.676  1106.493    10.204     7.178    11.613    11.629     0.581    33.714     0.000     0.000   756.132  2000.120  2326.231  2326.046     0.000     0.000     0.000  2326.640    88.984    26.585    28.867    24.303    25.112    17.431     0.000     0.000     0.000     0.000     0.000     0.000     0.000     0.000     0.000     0.000     0.000     0.000     0.008     0.201    -0.188     0.016     0.034    -0.338    -0.317     0.154     0.041     0.029     0.000     0.000     0.000     0.012     0.000     0.002     0.000     0.366     0.000    15.753     0.074    63.281     0.032     0.066     1.094     0.046 .00000E+00 .00000E+00 0.250E+01 0.000E+00 0.000E+00 0.000E+00 0.000E+00 0.000E+00 0.000E+00 0.000E+00     0.595     0.000     0.000
FRSE   37 000050007    5    0  4.0.83108E-02  3445.525     0.000     0.000     0.000  1685.676  1106.493    10.204     7.178    11.612    11.629     0.581    33.714     0.000     0.000   756.132  2000.120  2326.231  2326.175     0.000     0.000     0.000  2326.770    88.984    26.585    28.867    24.303    25.112    17.431     0.000     0.000     0.000     0.000     0.000     0.000     0.000     0.000     0.000     0.000     0.000     0.000     0.008     0.201    -0.188     0.016     0.034    -0.338    -0.317     0.154     0.041     0.029     0.000     0.000     0.000     0.012     0.000     0.002     0.000     0.366     0.000    15.753     0.074    63.281     0.032     0.066     1.094     0.046 .00000E+00 .00000E+00 0.250E+01 0.000E+00 0.000E+00 0.000E+00 0.000E+00 0.000E+00 0.000E+00 0.000E+00     0.595     0.000     0.000
FRSE   38 000050008    5    0  4.0.10260E-01  3445.525     0.000     0.000     0.000  1685.676  1106.490    10.204     7.178    11.612    11.629     0.581    33.714     0.000     0.000   756.130  2000.120  2326.227  2326.227     0.000     0.001     0.000  2326.822    88.984    26.585    28.867    24.303    25.112    17.431     0.000     0.000     0.000     0.000     0.000     0.000     0.000     0.000     0.000     0.000     0.000     0.000     0.008     0.201    -0.188     0.016     0.034    -0.338    -0.317     0.154     0.041     0.029     0.000     0.000     0.000     0.012     0.000     0.002     0.000     0.366     0.000    15.754     0.074    63.281     0.032     0.066     1.094     0.046 .00000E+00 .00000E+00 0.250E+01 0.000E+00 0.000E+00 0.000E+00 0.000E+00 0.000E+00 0.000E+00 0.000E+00     0.595     0.001     0.000
FRSE   39 000050009    5    0  4.0.20521E-03  3445.525     0.000     0.000     0.000  1685.676   989.375    84.437    90.392   429.088   424.876    21.244    33.714     0.000     0.000  1012.472  2004.348  1324.290  1324.290     0.000   701.773   370.429  2418.256    88.005    26.585    28.867    24.303    25.710    17.431    10.235    13.236     0.000     0.000     0.000     0.000     0.000     0.000     0.000     0.000     0.000     0.000     0.642    12.037   -10.553     0.174     2.053     0.156     0.517     0.000     3.776     1.026    39.025     4.766     3.736     0.034     1.011     5.581     0.053     0.065     0.000     0.099     0.074    29.384     0.000     4.407     4.383     3.085 .00000E+00 .00000E+00 0.168E+00 0.000E+00 0.000E+00 0.000E+00 0.000E+00 0.000E+00 0.000E+00 0.101E+01    21.765   701.773     0.000
FRSE   40 000050010    5    0  4.0.10260E-03  3445.525     0.000     0.000     0.000  1685.676  1106.493    10.204     7.178    11.613    11.629     0.581    33.714     0.000     0.000   756.132  2000.120  2326.231  2326.073     0.000     0.000     0.000  2326.667    88.984    26.585    28.867    24.303    25.112    17.431     0.000     0.000     0.000     0.000     0.000     0.000     0.000     0.000     0.000     0.000     0.000     0.000     0.008     0.201    -0.188     0.016     0.034    -0.338    -0.317     0.154     0.041     0.029     0.000     0.000     0.000     0.012     0.000     0.002     0.000     0.366     0.000    15.753     0.074    63.281     0.032     0.066     1.094     0.046 .00000E+00 .00000E+00 0.250E+01 0.000E+00 0.000E+00 0.000E+00 0.000E+00 0.000E+00 0.000E+00 0.000E+00     0.595     0.000     0.000
FRSE   41 000050011    5    0  4.0.27703E-02  3445.525     0.000     0.000     0.000  1685.676  1106.493    10.204     7.178    11.612    11.629     0.581    33.714     0.000     0.000   756.132  2000.120  2326.231  2326.219     0.000     0.000     0.000  2326.813    88.984    26.585    28.867    24.303    25.112    17.431     0.000     0.000     0.000     0.000     0.000     0.000     0.000     0.000     0.000     0.000     0.000     0.000     0.008     0.201    -0.188     0.016     0.034    -0.338    -0.317     0.154     0.041     0.029     0.000     0.000     0.000     0.012     0.000     0.002     0.000     0.366     0.000    15.753     0.074    63.281     0.032     0.066     1.094     0.046 .00000E+00 .00000E+00 0.250E+01 0.000E+00 0.000E+00 0.000E+00 0.000E+00 0.000E+00 0.000E+00 0.000E+00     0.595     0.000     0.000
FRSE   42 000050012    5    0  4.0.49249E-02  3445.525     0.000     0.000     0.000  1685.676  1106.490    10.204     7.178    11.612    11.629     0.581    33.714     0.000     0.000   756.130  2000.120  2326.227  2326.227     0.000     0.001     0.000  2326.822    88.984    26.585    28.867    24.303    25.112    17.431     0.000     0.000     0.000     0.000     0.000     0.000     0.000     0.000     0.000     0.000     0.000     0.000     0.008     0.201    -0.188     0.016     0.034    -0.338    -0.317     0.154     0.041     0.029     0.000     0.000     0.000     0.012     0.000     0.002     0.000     0.366     0.000    15.754     0.074    63.281     0.032     0.066     1.094     0.046 .00000E+00 .00000E+00 0.250E+01 0.000E+00 0.000E+00 0.130E+03 0.195E+04 0.000E+00 0.000E+00 0.000E+00     0.595     0.001     0.000
