1
    SWAT Dec 23 2016    VER 2016/Rev 664                                                                 0/ 0/   0      0: 0: 0

    General Input/Output section (file.cio):                                        
    2/7/2020 13:52:59 QSWAT Workflow v1.5.2                                         
                                                                                    


LULC  HRU       GIS  SUB  MGT  MON   AREAkm2  PRECIPmm SNOFALLmm SNOMELTmm     IRRmm     PETmm      ETmm SW_INITmm  SW_ENDmm    PERCmm GW_RCHGmm DA_RCHGmm   REVAPmm  SA_IRRmm  DA_IRRmm   SA_STmm   DA_STmmSURQ_GENmmSURQ_CNTmm   TLOSSmm LATQGENmm    GW_Qmm    WYLDmm   DAILYCN TMP_AVdgC TMP_MXdgC TMP_MNdgCSOL_TMPdgCSOLARMJ/m2  SYLDt/ha  USLEt/haN_APPkg/haP_APPkg/haNAUTOkg/haPAUTOkg/ha NGRZkg/ha PGRZkg/haNCFRTkg/haPCFRTkg/haNRAINkg/ha NFIXkg/ha F-MNkg/ha A-MNkg/ha A-SNkg/ha F-MPkg/haAO-LPkg/ha L-APkg/ha A-SPkg/ha DNITkg/ha  NUPkg/ha  PUPkg/ha ORGNkg/ha ORGPkg/ha SEDPkg/haNSURQkg/haNLATQkg/ha NO3Lkg/haNO3GWkg/ha SOLPkg/ha P_GWkg/ha    W_STRS  TMP_STRS    N_STRS    P_STRS  BIOMt/ha       LAI   YLDt/ha  BACTPct   BACTLPct WTAB CLIm WTAB SOLm     SNOmm CMUPkg/haCMTOTkg/ha   QTILEmm TNO3kg/ha LNO3kg/ha  GW_Q_Dmm LATQCNTmm TVAPkg/ha
FRSE    1 000010001    1    0    1.68641E-01   288.000     0.000     0.000     0.000   152.500   112.622   157.774   162.017     7.410    12.512     0.626     3.050     0.000     0.000  1002.245  2001.738     1.668     1.668     0.000   151.462    12.440   166.104    73.206    27.889    30.629    25.148    26.374    17.491     0.086     0.727     0.000     0.000     0.000     0.000     0.000     0.000     0.000     0.000     0.000     0.000     0.046     2.032    -0.612     0.005     0.348     0.331     0.394     0.000     0.000     0.000     0.331     0.040     0.032     0.000     0.243     0.423     0.002     0.000     0.000     0.000     0.000     0.000     0.000     0.000     0.000     0.000 .00000E+00 .00000E+00 0.918E-01 0.444E+04 0.000E+00 0.000E+00 0.000E+00 0.000E+00 0.000E+00 0.243E+00     0.534   151.462     0.000
FRSE    2 000010002    1    0    1.20520E-03   288.000     0.000     0.000     0.000   152.500   113.453    91.783    93.425   147.960   135.390     6.770     3.050     0.000     0.000  1067.217  2017.744    22.337    22.320     0.000     0.478   131.082   159.171    84.713    27.889    30.629    25.148    27.162    17.491     0.004     0.040     0.000     0.000     0.000     0.000     0.000     0.000     0.000     0.000     0.000     0.000     0.012     1.458    -0.442     0.003     0.250     0.016     0.013     0.000     0.000     0.000     0.053     0.007     0.005     0.002     0.001     1.498     0.056     0.006     0.000     0.000     0.000     0.000     0.000     0.000     0.000     0.000 .00000E+00 .00000E+00 0.231E+00 0.404E+04 0.000E+00 0.000E+00 0.000E+00 0.000E+00 0.000E+00 0.807E-03     5.291     0.478     0.000
FRSE    3 000010003    1    0    1.17196E+00   288.000     0.000     0.000     0.000   152.500   107.054    84.798    88.686     0.000     0.380     0.019     3.050     0.000     0.000   958.205  2000.068    17.427    17.427     0.000   153.053     0.000   170.502    83.388    27.889    30.629    25.148    27.117    17.491     2.259     3.104     0.000     0.000     0.000     0.000     0.000     0.000     0.000     0.000     0.000     0.000     0.029     1.395    -0.409     0.003     0.239     0.252     0.417     0.000     0.000     0.000     3.721     0.455     0.368     0.003     0.190     0.000     0.000     0.001     0.000     0.000     0.000     0.000     0.000     0.000     0.000     0.000 .00000E+00 .00000E+00 0.184E+00 0.404E+04 0.000E+00 0.000E+00 0.000E+00 0.000E+00 0.000E+00 0.190E+00     0.022   153.053     0.000
AGRL    4 000010004    1    0    1.15390E-02   288.000     0.000     0.000     0.000   152.500   109.605   155.105   162.053     0.000     1.992     0.100     3.050     0.000     0.000   989.138  2000.333    46.050    46.050     0.000   117.429     0.000   163.586    89.219    27.889    30.629    25.148    26.175    17.491     2.147     1.209     0.000     0.000     0.000     0.000     0.000     0.000     0.000     0.000     0.000     0.000     0.502     2.028    -0.560     0.164     0.348     0.620     0.741     0.000     0.000     0.000     4.687     0.623     0.553     0.032     0.400     0.000     0.000     0.010     0.000     0.000     0.000     0.000     0.000     0.000     0.000     0.000 .00000E+00 .00000E+00 0.358E+00 0.444E+04 0.000E+00 0.000E+00 0.000E+00 0.000E+00 0.000E+00 0.400E+00     0.106   117.429     0.000
AGRL    5 000010005    1    0    1.18468E-02   288.000     0.000     0.000     0.000   152.500   101.386    71.011    74.704     0.000     0.000     0.000     3.050     0.000     0.000   932.679  2000.000    57.376    57.376     0.000   120.154     0.000   177.529    90.643    27.889    30.629    25.148    26.906    17.491     4.605     3.166     0.000     0.000     0.000     0.000     0.000     0.000     0.000     0.000     0.000     0.000     0.303     1.364    -0.363     0.103     0.234     0.479     0.639     0.000     0.000     0.000     7.679     0.998     0.858     0.034     0.285     0.000     0.000     0.009     0.000     0.000     0.000     0.000     0.000     0.000     0.000     0.000 .00000E+00 .00000E+00 0.402E+00 0.404E+04 0.000E+00 0.000E+00 0.000E+00 0.000E+00 0.000E+00 0.285E+00     0.000   120.154     0.000
SWCH    6 000020001    2    0    1.30781E-03   288.000     0.000     0.000     0.000   152.492   107.310   160.672   162.252   100.890    92.933     4.647     3.050     0.000     0.000  1051.306  2011.066     5.045     5.045     0.000    68.797    86.484   163.555    77.051    27.889    30.629    25.148    25.844    17.491     0.000     0.002     0.000     0.000     0.000     0.000     0.000     0.000     0.000     0.000     0.000     0.000     4.086     2.112    -0.476     1.127     0.362     1.186     1.002     0.000     0.000     0.000     0.000     0.000     0.000     0.008     0.437     2.305     0.032     0.002     0.000     0.000     0.000     0.000     0.000     0.000     0.000     0.000 .00000E+00 .00000E+00 0.105E+00 0.444E+04 0.000E+00 0.000E+00 0.000E+00 0.000E+00 0.000E+00 0.437E+00     3.229    68.797     0.000
FRSE    7 000020002    2    0    1.10260E-03   288.000     0.000     0.000     0.000   152.492   115.352   160.413   162.112   165.800   169.449     8.472     3.050     0.000     0.000  1086.373  2022.900     1.992     1.992     0.000     0.819   170.868   180.584    73.626    27.889    30.629    25.148    26.395    17.491     0.000     0.010     0.000     0.000     0.000     0.000     0.000     0.000     0.000     0.000     0.000     0.000     0.021     2.064    -0.628     0.005     0.354     0.143     0.127     0.000     0.000     0.000     0.000     0.000     0.000     0.000     0.001     2.167     0.108     0.001     0.000     0.000     0.000     0.000     0.000     0.000     0.000     0.000 .00000E+00 .00000E+00 0.937E-01 0.444E+04 0.000E+00 0.000E+00 0.000E+00 0.000E+00 0.000E+00 0.131E-02     6.905     0.819     0.000
FRSE    8 000020003    2    0    1.27395E-01   288.000     0.000     0.000     0.000   152.492   112.315   157.317   162.017     5.364    10.212     0.511     3.050     0.000     0.000  1000.767  2001.440     1.651     1.651     0.000   153.527     9.613   165.234    73.134    27.889    30.629    25.148    26.372    17.491     0.085     0.809     0.000     0.000     0.000     0.000     0.000     0.000     0.000     0.000     0.000     0.000     0.046     2.030    -0.611     0.005     0.348     0.335     0.397     0.000     0.000     0.000     0.329     0.040     0.031     0.000     0.235     0.339     0.002     0.000     0.000     0.000     0.000     0.000     0.000     0.000     0.000     0.000 .00000E+00 .00000E+00 0.917E-01 0.444E+04 0.000E+00 0.000E+00 0.000E+00 0.000E+00 0.000E+00 0.235E+00     0.443   153.527     0.000
FRSE    9 000020004    2    0    1.99217E-01   288.000     0.000     0.000     0.000   152.492   107.051    84.799    88.687     0.000     0.380     0.019     3.050     0.000     0.000   958.189  2000.068    17.428    17.428     0.000   153.054     0.000   170.504    83.389    27.889    30.629    25.148    27.117    17.491     2.125     3.116     0.000     0.000     0.000     0.000     0.000     0.000     0.000     0.000     0.000     0.000     0.030     1.395    -0.409     0.003     0.239     0.252     0.417     0.000     0.000     0.000     3.602     0.440     0.356     0.003     0.190     0.000     0.000     0.001     0.000     0.000     0.000     0.000     0.000     0.000     0.000     0.000 .00000E+00 .00000E+00 0.184E+00 0.404E+04 0.000E+00 0.000E+00 0.000E+00 0.000E+00 0.000E+00 0.190E+00     0.022   153.054     0.000
FRSD   10 000020005    2    0    1.23599E-02   288.000     0.000     0.000     0.000   152.492   104.974    80.600    84.223     0.000     0.000     0.000     3.050     0.000     0.000   939.213  2000.003    36.284    36.284     0.000   137.271     0.000   173.556    87.733    27.889    30.629    25.148    27.055    17.491     1.562     0.868     0.000     0.000     0.000     0.000     0.000     0.000     0.000     0.000     0.000     0.000     0.086     1.387    -0.399     0.009     0.238     0.258     0.417     0.000     0.000     0.000     4.075     0.498     0.400     0.009     0.201     0.000     0.000     0.002     0.000     0.000     0.000     0.000     0.000     0.000     0.000     0.000 .00000E+00 .00000E+00 0.317E+00 0.404E+04 0.000E+00 0.000E+00 0.000E+00 0.000E+00 0.000E+00 0.201E+00     0.002   137.271     0.000
FRSD   11 000020006    2    0    1.71821E-03   288.000     0.000     0.000     0.000   152.492   112.853   158.204   162.039    13.502    13.849     0.692     3.050     0.000     0.000  1002.957  2001.786    47.636    47.636     0.000   100.706    12.782   161.655    89.418    27.889    30.629    25.148    26.310    17.491     0.229     0.170     0.000     0.000     0.000     0.000     0.000     0.000     0.000     0.000     0.000     0.000     0.110     2.042    -0.605     0.011     0.350     0.326     0.352     0.000     0.000     0.000     1.734     0.212     0.163     0.011     0.268     0.766     0.003     0.007     0.000     0.000     0.000     0.000     0.000     0.000     0.000     0.000 .00000E+00 .00000E+00 0.361E+00 0.444E+04 0.000E+00 0.000E+00 0.000E+00 0.000E+00 0.000E+00 0.268E+00     0.531   100.706     0.000
FRSD   12 000020007    2    0    1.37963E-02   288.000     0.000     0.000     0.000   152.492   104.974    80.600    84.223     0.000     0.000     0.000     3.050     0.000     0.000   940.295  2000.005    36.284    36.284     0.000   137.271     0.000   173.557    87.733    27.889    30.629    25.148    27.055    17.491     1.087     0.571     0.000     0.000     0.000     0.000     0.000     0.000     0.000     0.000     0.000     0.000     0.092     1.389    -0.398     0.010     0.238     0.258     0.412     0.000     0.000     0.000     3.394     0.415     0.331     0.009     0.202     0.000     0.000     0.003     0.000     0.000     0.000     0.000     0.000     0.000     0.000     0.000 .00000E+00 .00000E+00 0.317E+00 0.404E+04 0.000E+00 0.000E+00 0.000E+00 0.000E+00 0.000E+00 0.202E+00     0.002   137.271     0.000
FRSD   13 000020008    2    0    1.92342E-03   288.000     0.000     0.000     0.000   152.492   104.974    80.600    84.223     0.000     0.000     0.000     3.050     0.000     0.000   940.554  2000.005    36.284    36.284     0.000   137.271     0.000   173.557    87.733    27.889    30.629    25.148    27.055    17.491     0.810     0.504     0.000     0.000     0.000     0.000     0.000     0.000     0.000     0.000     0.000     0.000     0.096     1.392    -0.398     0.010     0.238     0.257     0.403     0.000     0.000     0.000     3.073     0.375     0.297     0.010     0.204     0.000     0.000     0.003     0.000     0.000     0.000     0.000     0.000     0.000     0.000     0.000 .00000E+00 .00000E+00 0.317E+00 0.404E+04 0.000E+00 0.000E+00 0.000E+00 0.000E+00 0.000E+00 0.204E+00     0.002   137.271     0.000
FRSE   14 000030001    3    0    1.35808E-01   288.000     0.000     0.000     0.000   152.465   112.757   157.974   162.018     8.625    13.871     0.694     3.049     0.000     0.000  1002.680  2001.917     1.676     1.676     0.000   150.275    14.190   166.728    73.238    27.889    30.629    25.148    26.374    17.491     0.075     0.685     0.000     0.000     0.000     0.000     0.000     0.000     0.000     0.000     0.000     0.000     0.047     2.034    -0.613     0.005     0.348     0.329     0.385     0.000     0.000     0.000     0.318     0.039     0.030     0.000     0.247     0.467     0.003     0.000     0.000     0.000     0.000     0.000     0.000     0.000     0.000     0.000 .00000E+00 .00000E+00 0.916E-01 0.444E+04 0.000E+00 0.000E+00 0.000E+00 0.000E+00 0.000E+00 0.247E+00     0.587   150.275     0.000
FRSE   15 000030002    3    0    1.91522E-01   288.000     0.000     0.000     0.000   152.465   107.042    84.803    88.692     0.000     0.405     0.020     3.049     0.000     0.000   959.836  2000.074    17.431    17.431     0.000   153.058     0.000   170.512    83.389    27.889    30.629    25.148    27.117    17.491     1.695     2.510     0.000     0.000     0.000     0.000     0.000     0.000     0.000     0.000     0.000     0.000     0.033     1.396    -0.408     0.004     0.239     0.252     0.414     0.000     0.000     0.000     3.273     0.400     0.323     0.003     0.191     0.000     0.000     0.001     0.000     0.000     0.000     0.000     0.000     0.000     0.000     0.000 .00000E+00 .00000E+00 0.183E+00 0.404E+04 0.000E+00 0.000E+00 0.000E+00 0.000E+00 0.000E+00 0.191E+00     0.024   153.058     0.000
FRSE   16 000040001    4    0    1.15596E-01   288.000     0.000     0.000     0.000   152.395   112.274   157.328   162.021     5.378    10.235     0.512     3.048     0.000     0.000  1000.841  2001.445     1.652     1.652     0.000   153.559     9.632   165.287    73.136    27.889    30.629    25.148    26.372    17.491     0.079     0.809     0.000     0.000     0.000     0.000     0.000     0.000     0.000     0.000     0.000     0.000     0.047     2.031    -0.611     0.005     0.348     0.335     0.393     0.000     0.000     0.000     0.323     0.040     0.031     0.000     0.236     0.339     0.002     0.000     0.000     0.000     0.000     0.000     0.000     0.000     0.000     0.000 .00000E+00 .00000E+00 0.909E-01 0.444E+04 0.000E+00 0.000E+00 0.000E+00 0.000E+00 0.000E+00 0.236E+00     0.444   153.559     0.000
FRSE   17 000040002    4    0    1.82595E-01   288.000     0.000     0.000     0.000   152.395   107.019    84.814    88.704     0.000     0.345     0.017     3.048     0.000     0.000   955.642  2000.063    17.437    17.437     0.000   153.069     0.000   170.526    83.391    27.889    30.629    25.148    27.117    17.491     2.928     4.382     0.000     0.000     0.000     0.000     0.000     0.000     0.000     0.000     0.000     0.000     0.025     1.394    -0.409     0.003     0.239     0.252     0.419     0.000     0.000     0.000     4.277     0.523     0.424     0.003     0.189     0.000     0.000     0.001     0.000     0.000     0.000     0.000     0.000     0.000     0.000     0.000 .00000E+00 .00000E+00 0.182E+00 0.404E+04 0.000E+00 0.000E+00 0.000E+00 0.000E+00 0.000E+00 0.189E+00     0.020   153.069     0.000
BARR   18 000040003    4    0    1.20520E-03   288.000     0.000     0.000     0.000   152.395    96.329    45.095    48.105     0.000     0.000     0.000     3.048     0.000     0.000   932.780  2000.000    95.918    95.918     0.000    89.131     0.000   185.049    93.971    27.889    30.629    25.148    26.782    17.491    24.692     9.033     0.000     0.000     0.000     0.000     0.000     0.000     0.000     0.000     0.000     0.000     0.000     1.218    -0.386     0.000     0.209     0.234     0.380     0.000     0.000     0.000    24.420     2.988     2.443     0.039     0.087     0.000     0.000     0.005     0.000     0.000     0.000     0.000     0.000     0.000     0.000     0.000 .00000E+00 .00000E+00 0.762E+00 0.404E+04 0.000E+00 0.000E+00 0.000E+00 0.000E+00 0.000E+00 0.872E-01     0.000    89.131     0.000
FRSD   19 000040004    4    0    1.91008E-01   288.000     0.000     0.000     0.000   152.395   104.948    80.650    84.270     0.000     0.000     0.000     3.048     0.000     0.000   939.530  2000.005    36.327    36.327     0.000   137.257     0.000   173.585    87.740    27.889    30.629    25.148    27.055    17.491     2.265     0.820     0.000     0.000     0.000     0.000     0.000     0.000     0.000     0.000     0.000     0.000     0.079     1.386    -0.399     0.008     0.237     0.259     0.420     0.000     0.000     0.000     5.003     0.611     0.492     0.009     0.199     0.000     0.000     0.002     0.000     0.000     0.000     0.000     0.000     0.000     0.000     0.000 .00000E+00 .00000E+00 0.316E+00 0.404E+04 0.000E+00 0.000E+00 0.000E+00 0.000E+00 0.000E+00 0.199E+00     0.002   137.257     0.000
AGRL   20 000040005    4    0    1.10260E-03   288.000     0.000     0.000     0.000   152.395   112.848   160.236   162.088    87.575    74.695     3.735     3.048     0.000     0.000  1035.575  2009.766    48.754    48.754     0.000    32.171    72.135   155.960    89.549    27.889    30.629    25.148    26.193    17.491     0.306     0.231     0.000     0.000     0.000     0.000     0.000     0.000     0.000     0.000     0.000     0.000     0.761     2.078    -0.541     0.270     0.357     0.609     0.696     0.000     0.000     0.000     2.236     0.295     0.229     0.028     0.165     4.467     0.071     0.016     0.000     0.000     0.000     0.000     0.000     0.000     0.000     0.000 .00000E+00 .00000E+00 0.366E+00 0.444E+04 0.000E+00 0.000E+00 0.000E+00 0.000E+00 0.000E+00 0.165E+00     2.899    32.171     0.000
SWCH   21 000050001    5    0    1.20521E-03   288.000     0.000     0.000     0.000   152.464    99.644    73.315    79.088     0.000     0.000     0.000     3.049     0.000     0.000   941.711  2000.005    15.095    15.095     0.000   159.133     0.000   174.231    82.611    27.889    30.629    25.148    26.703    17.491     0.009     0.042     0.000     0.000     0.000     0.000     0.000     0.000     0.000     0.000     0.000     0.000     4.186     1.439    -0.245     1.149     0.247     1.236     1.126     0.000     0.000     0.000     0.043     0.006     0.004     0.037     1.140     0.000     0.000     0.005     0.000     0.000     0.000     0.000     0.000     0.000     0.000     0.000 .00000E+00 .00000E+00 0.151E+00 0.404E+04 0.000E+00 0.000E+00 0.000E+00 0.000E+00 0.000E+00 0.114E+01     0.003   159.133     0.000
FRSE   22 000050002    5    0    1.23393E-01   288.000     0.000     0.000     0.000   152.464   111.705   156.376   162.018     2.006     6.301     0.315     3.049     0.000     0.000  1000.018  2000.931     1.563     1.563     0.000   157.021     2.465   161.341    72.984    27.889    30.629    25.148    26.368    17.491     0.096     0.987     0.000     0.000     0.000     0.000     0.000     0.000     0.000     0.000     0.000     0.000     0.045     2.026    -0.609     0.005     0.347     0.342     0.413     0.000     0.000     0.000     0.328     0.040     0.031     0.000     0.206     0.156     0.000     0.000     0.000     0.000     0.000     0.000     0.000     0.000     0.000     0.000 .00000E+00 .00000E+00 0.913E-01 0.444E+04 0.000E+00 0.000E+00 0.000E+00 0.000E+00 0.000E+00 0.206E+00     0.292   157.021     0.000
FRSE   23 000050003    5    0    1.10259E-03   288.000     0.000     0.000     0.000   152.464   113.436    91.786    93.428   148.506   135.895     6.795     3.049     0.000     0.000  1067.477  2017.811    22.338    21.729     0.000     0.010   131.560   158.610    84.713    27.889    30.629    25.148    27.162    17.491     0.000     0.011     0.000     0.000     0.000     0.000     0.000     0.000     0.000     0.000     0.000     0.000     0.012     1.459    -0.442     0.003     0.250     0.015     0.012     0.000     0.000     0.000     0.000     0.000     0.000     0.002     0.000     1.502     0.056     0.006     0.000     0.000     0.000     0.000     0.000     0.000     0.000     0.000 .00000E+00 .00000E+00 0.301E+00 0.404E+04 0.000E+00 0.000E+00 0.000E+00 0.000E+00 0.000E+00 0.194E-04     5.311     0.010     0.000
FRSE   24 000050004    5    0    1.51301E-03   288.000     0.000     0.000     0.000   152.464   113.427    91.770    93.416   145.090   132.782     6.639     3.049     0.000     0.000  1065.844  2017.402    22.330    22.329     0.000     2.990   128.613   159.122    84.711    27.889    30.629    25.148    27.162    17.491     0.049     0.111     0.000     0.000     0.000     0.000     0.000     0.000     0.000     0.000     0.000     0.000     0.011     1.454    -0.441     0.003     0.249     0.021     0.023     0.000     0.000     0.000     0.610     0.075     0.057     0.002     0.005     1.477     0.055     0.005     0.000     0.000     0.000     0.000     0.000     0.000     0.000     0.000 .00000E+00 .00000E+00 0.218E+00 0.404E+04 0.000E+00 0.000E+00 0.000E+00 0.000E+00 0.000E+00 0.508E-02     5.190     2.990     0.000
FRSE   25 000050005    5    0    1.21003E+00   288.000     0.000     0.000     0.000   152.464   108.571    86.908    92.743     0.000     1.884     0.094     3.049     0.000     0.000   987.365  2000.292    18.621    18.621     0.000   146.878     0.000   165.592    83.792    27.889    30.629    25.148    27.125    17.491     1.377     1.534     0.000     0.000     0.000     0.000     0.000     0.000     0.000     0.000     0.000     0.000     0.035     1.404    -0.412     0.004     0.240     0.248     0.405     0.000     0.000     0.000     3.157     0.386     0.310     0.003     0.193     0.000     0.000     0.001     0.000     0.000     0.000     0.000     0.000     0.000     0.000     0.000 .00000E+00 .00000E+00 0.186E+00 0.404E+04 0.000E+00 0.000E+00 0.000E+00 0.000E+00 0.000E+00 0.193E+00     0.093   146.878     0.000
BARR   26 000050006    5    0    1.41042E-03   288.000     0.000     0.000     0.000   152.464    96.347    45.061    48.073     0.000     0.000     0.000     3.049     0.000     0.000   932.715  2000.000    95.868    95.868     0.000    89.160     0.000   185.028    93.968    27.889    30.629    25.148    26.782    17.491    21.832     7.389     0.000     0.000     0.000     0.000     0.000     0.000     0.000     0.000     0.000     0.000     0.000     1.218    -0.386     0.000     0.209     0.233     0.382     0.000     0.000     0.000    22.718     2.779     2.272     0.039     0.087     0.000     0.000     0.005     0.000     0.000     0.000     0.000     0.000     0.000     0.000     0.000 .00000E+00 .00000E+00 0.763E+00 0.404E+04 0.000E+00 0.000E+00 0.000E+00 0.000E+00 0.000E+00 0.872E-01     0.000    89.160     0.000
FRSD   27 000050007    5    0    1.20931E-01   288.000     0.000     0.000     0.000   152.464   104.966    80.615    84.237     0.000     0.000     0.000     3.049     0.000     0.000   940.122  2000.001    36.296    36.296     0.000   137.267     0.000   173.565    87.735    27.889    30.629    25.148    27.055    17.491     1.464     0.626     0.000     0.000     0.000     0.000     0.000     0.000     0.000     0.000     0.000     0.000     0.087     1.388    -0.399     0.009     0.238     0.258     0.416     0.000     0.000     0.000     3.929     0.480     0.386     0.009     0.201     0.000     0.000     0.002     0.000     0.000     0.000     0.000     0.000     0.000     0.000     0.000 .00000E+00 .00000E+00 0.317E+00 0.404E+04 0.000E+00 0.000E+00 0.000E+00 0.000E+00 0.000E+00 0.201E+00     0.002   137.267     0.000
FRSE   28 000060001    6    0    1.41042E-03   288.000     0.000     0.000     0.000   152.503   115.353   160.388   162.097   164.105   167.757     8.388     3.050     0.000     0.000  1085.483  2022.672     1.990     1.990     0.000     2.296   169.203   180.326    73.622    27.889    30.629    25.148    26.394    17.491     0.000     0.036     0.000     0.000     0.000     0.000     0.000     0.000     0.000     0.000     0.000     0.000     0.021     2.063    -0.628     0.005     0.353     0.145     0.130     0.000     0.000     0.000     0.000     0.000     0.000     0.000     0.004     2.159     0.107     0.001     0.000     0.000     0.000     0.000     0.000     0.000     0.000     0.000 .00000E+00 .00000E+00 0.936E-01 0.444E+04 0.000E+00 0.000E+00 0.000E+00 0.000E+00 0.000E+00 0.367E-02     6.837     2.296     0.000
FRSE   29 000060002    6    0    1.58791E-01   288.000     0.000     0.000     0.000   152.503   113.269   158.642   162.017    13.702    19.387     0.969     3.050     0.000     0.000  1006.275  2002.646     1.707     1.707     0.000   145.301    20.512   168.325    73.344    27.889    30.629    25.148    26.377    17.491     0.064     0.547     0.000     0.000     0.000     0.000     0.000     0.000     0.000     0.000     0.000     0.000     0.047     2.038    -0.614     0.005     0.349     0.320     0.367     0.000     0.000     0.000     0.304     0.037     0.029     0.000     0.252     0.620     0.005     0.000     0.000     0.000     0.000     0.000     0.000     0.000     0.000     0.000 .00000E+00 .00000E+00 0.921E-01 0.444E+04 0.000E+00 0.000E+00 0.000E+00 0.000E+00 0.000E+00 0.252E+00     0.805   145.301     0.000
FRSE   30 000060003    6    0    1.10260E-03   288.000     0.000     0.000     0.000   152.503   113.445    91.768    93.414   144.365   132.113     6.606     3.050     0.000     0.000  1065.500  2017.317    22.329    22.329     0.000     3.603   127.978   159.074    84.710    27.889    30.629    25.148    27.162    17.491     0.035     0.113     0.000     0.000     0.000     0.000     0.000     0.000     0.000     0.000     0.000     0.000     0.012     1.454    -0.441     0.003     0.249     0.022     0.024     0.000     0.000     0.000     0.357     0.044     0.033     0.002     0.006     1.473     0.054     0.005     0.000     0.000     0.000     0.000     0.000     0.000     0.000     0.000 .00000E+00 .00000E+00 0.217E+00 0.404E+04 0.000E+00 0.000E+00 0.000E+00 0.000E+00 0.000E+00 0.612E-02     5.163     3.603     0.000
FRSE   31 000060004    6    0    1.92445E-01   288.000     0.000     0.000     0.000   152.503   107.055    84.798    88.685     0.000     0.399     0.020     3.050     0.000     0.000   959.501  2000.071    17.427    17.427     0.000   153.052     0.000   170.502    83.388    27.889    30.629    25.148    27.117    17.491     1.726     2.554     0.000     0.000     0.000     0.000     0.000     0.000     0.000     0.000     0.000     0.000     0.033     1.396    -0.408     0.004     0.239     0.252     0.414     0.000     0.000     0.000     3.296     0.403     0.325     0.003     0.191     0.000     0.000     0.001     0.000     0.000     0.000     0.000     0.000     0.000     0.000     0.000 .00000E+00 .00000E+00 0.184E+00 0.404E+04 0.000E+00 0.000E+00 0.000E+00 0.000E+00 0.000E+00 0.191E+00     0.023   153.052     0.000
FRSD   32 000060005    6    0    1.12312E-02   288.000     0.000     0.000     0.000   152.503   104.977    80.595    84.218     0.000     0.000     0.000     3.050     0.000     0.000   939.757  2000.003    36.279    36.279     0.000   137.273     0.000   173.553    87.732    27.889    30.629    25.148    27.055    17.491     1.185     0.712     0.000     0.000     0.000     0.000     0.000     0.000     0.000     0.000     0.000     0.000     0.090     1.388    -0.398     0.009     0.238     0.258     0.414     0.000     0.000     0.000     3.511     0.429     0.344     0.009     0.202     0.000     0.000     0.003     0.000     0.000     0.000     0.000     0.000     0.000     0.000     0.000 .00000E+00 .00000E+00 0.317E+00 0.404E+04 0.000E+00 0.000E+00 0.000E+00 0.000E+00 0.000E+00 0.202E+00     0.002   137.273     0.000
FRSD   33 000060006    6    0    1.10260E-03   288.000     0.000     0.000     0.000   152.503   113.933   159.521   162.039    41.524    37.405     1.870     3.050     0.000     0.000  1016.270  2004.782    48.317    48.317     0.000    72.921    36.974   159.624    89.503    27.889    30.629    25.148    26.316    17.491     0.171     0.214     0.000     0.000     0.000     0.000     0.000     0.000     0.000     0.000     0.000     0.000     0.101     2.048    -0.609     0.011     0.351     0.291     0.310     0.000     0.000     0.000     1.371     0.168     0.128     0.009     0.197     1.479     0.012     0.008     0.000     0.000     0.000     0.000     0.000     0.000     0.000     0.000 .00000E+00 .00000E+00 0.365E+00 0.444E+04 0.000E+00 0.000E+00 0.000E+00 0.000E+00 0.000E+00 0.197E+00     1.412    72.921     0.000
AGRL   34 000060007    6    0    1.10260E-03   288.000     0.000     0.000     0.000   152.503   112.964   160.382   162.085   108.632    92.057     4.603     3.050     0.000     0.000  1044.684  2012.028    48.827    48.825     0.000    11.991    88.344   152.728    89.559    27.889    30.629    25.148    26.193    17.491     0.453     0.556     0.000     0.000     0.000     0.000     0.000     0.000     0.000     0.000     0.000     0.000     0.748     2.069    -0.548     0.274     0.355     0.595     0.700     0.000     0.000     0.000     2.713     0.361     0.289     0.025     0.059     5.053     0.102     0.015     0.000     0.000     0.000     0.000     0.000     0.000     0.000     0.000 .00000E+00 .00000E+00 0.367E+00 0.444E+04 0.000E+00 0.000E+00 0.000E+00 0.000E+00 0.000E+00 0.594E-01     3.569    11.991     0.000
AGRL   35 000070001    7    0    1.20521E-03   288.000     0.000     0.000     0.000   152.507   111.669   158.756   162.083    16.555    16.797     0.840     3.050     0.000     0.000  1004.750  2002.208    47.900    47.900     0.000    99.337    16.379   164.275    89.454    27.889    30.629    25.148    26.189    17.491     0.666     0.649     0.000     0.000     0.000     0.000     0.000     0.000     0.000     0.000     0.000     0.000     0.737     2.059    -0.544     0.243     0.353     0.654     0.755     0.000     0.000     0.000     3.194     0.426     0.356     0.034     0.471     0.956     0.004     0.014     0.000     0.000     0.000     0.000     0.000     0.000     0.000     0.000 .00000E+00 .00000E+00 0.362E+00 0.444E+04 0.000E+00 0.000E+00 0.000E+00 0.000E+00 0.000E+00 0.471E+00     0.659    99.337     0.000
AGRL   36 000070002    7    0    1.48223E-02   288.000     0.000     0.000     0.000   152.507   104.344    82.664    86.095     0.000     0.000     0.000     3.050     0.000     0.000   941.759  2000.002    38.055    38.055     0.000   136.567     0.000   174.624    88.031    27.889    30.629    25.148    26.991    17.491     3.616     1.804     0.000     0.000     0.000     0.000     0.000     0.000     0.000     0.000     0.000     0.000     0.335     1.403    -0.371     0.112     0.240     0.496     0.662     0.000     0.000     0.000     5.851     0.762     0.659     0.020     0.333     0.000     0.000     0.006     0.000     0.000     0.000     0.000     0.000     0.000     0.000     0.000 .00000E+00 .00000E+00 0.329E+00 0.404E+04 0.000E+00 0.000E+00 0.000E+00 0.000E+00 0.000E+00 0.333E+00     0.002   136.567     0.000
AGRL   37 000070003    7    0    1.61561E-03   288.000     0.000     0.000     0.000   152.507   111.446   158.343   162.083    12.757    13.473     0.674     3.050     0.000     0.000  1002.608  2001.784    47.710    47.710     0.000   103.086    12.749   164.079    89.427    27.889    30.629    25.148    26.187    17.491     0.904     0.778     0.000     0.000     0.000     0.000     0.000     0.000     0.000     0.000     0.000     0.000     0.676     2.051    -0.549     0.223     0.352     0.646     0.761     0.000     0.000     0.000     3.507     0.470     0.405     0.032     0.468     0.723     0.002     0.013     0.000     0.000     0.000     0.000     0.000     0.000     0.000     0.000 .00000E+00 .00000E+00 0.362E+00 0.444E+04 0.000E+00 0.000E+00 0.000E+00 0.000E+00 0.000E+00 0.468E+00     0.535   103.086     0.000
AGRL   38 000070004    7    0    1.12312E-02   288.000     0.000     0.000     0.000   152.507   106.818    86.795    92.380     0.000     1.495     0.075     3.050     0.000     0.000   983.381  2000.237    41.475    41.475     0.000   126.869     0.000   168.420    88.594    27.889    30.629    25.148    27.011    17.491     1.872     1.716     0.000     0.000     0.000     0.000     0.000     0.000     0.000     0.000     0.000     0.000     0.511     1.424    -0.362     0.169     0.244     0.539     0.709     0.000     0.000     0.000     4.354     0.578     0.515     0.025     0.384     0.000     0.000     0.008     0.000     0.000     0.000     0.000     0.000     0.000     0.000     0.000 .00000E+00 .00000E+00 0.340E+00 0.404E+04 0.000E+00 0.000E+00 0.000E+00 0.000E+00 0.000E+00 0.384E+00     0.076   126.869     0.000
AGRL   39 000070005    7    0    1.79004E-02   288.000     0.000     0.000     0.000   152.507   112.784   159.975   162.084    63.695    55.501     2.775     3.050     0.000     0.000  1025.488  2007.258    48.616    48.616     0.000    54.051    54.158   158.980    89.532    27.889    30.629    25.148    26.193    17.491     0.827     0.603     0.000     0.000     0.000     0.000     0.000     0.000     0.000     0.000     0.000     0.000     0.617     2.056    -0.554     0.217     0.353     0.597     0.726     0.000     0.000     0.000     3.432     0.461     0.392     0.025     0.264     3.438     0.040     0.013     0.000     0.000     0.000     0.000     0.000     0.000     0.000     0.000 .00000E+00 .00000E+00 0.366E+00 0.444E+04 0.000E+00 0.000E+00 0.000E+00 0.000E+00 0.000E+00 0.264E+00     2.155    54.051     0.000
SWCH   40 000070006    7    0    1.30781E-03   288.000     0.000     0.000     0.000   152.507    99.616    73.400    79.169     0.000     0.000     0.000     3.050     0.000     0.000   940.923  2000.003    15.146    15.146     0.000   159.123     0.000   174.271    82.629    27.889    30.629    25.148    26.701    17.491     0.022     0.052     0.000     0.000     0.000     0.000     0.000     0.000     0.000     0.000     0.000     0.000     4.180     1.436    -0.245     1.165     0.246     1.252     1.149     0.000     0.000     0.000     0.088     0.012     0.009     0.037     1.138     0.000     0.000     0.005     0.000     0.000     0.000     0.000     0.000     0.000     0.000     0.000 .00000E+00 .00000E+00 0.152E+00 0.404E+04 0.000E+00 0.000E+00 0.000E+00 0.000E+00 0.000E+00 0.114E+01     0.003   159.123     0.000
FRSE   41 000070007    7    0    1.33551E-01   288.000     0.000     0.000     0.000   152.507   112.023   156.849   162.017     3.597     8.188     0.409     3.050     0.000     0.000  1000.134  2001.171     1.622     1.622     0.000   155.330     6.563   163.879    73.060    27.889    30.629    25.148    26.370    17.491     0.095     0.894     0.000     0.000     0.000     0.000     0.000     0.000     0.000     0.000     0.000     0.000     0.045     2.028    -0.610     0.005     0.347     0.339     0.407     0.000     0.000     0.000     0.336     0.041     0.032     0.000     0.223     0.251     0.001     0.000     0.000     0.000     0.000     0.000     0.000     0.000     0.000     0.000 .00000E+00 .00000E+00 0.918E-01 0.444E+04 0.000E+00 0.000E+00 0.000E+00 0.000E+00 0.000E+00 0.223E+00     0.364   155.330     0.000
FRSE   42 000070008    7    0    1.68641E-01   288.000     0.000     0.000     0.000   152.507   107.057    84.797    88.684     0.000     0.367     0.018     3.050     0.000     0.000   957.405  2000.064    17.427    17.427     0.000   153.052     0.000   170.500    83.388    27.889    30.629    25.148    27.117    17.491     2.261     3.463     0.000     0.000     0.000     0.000     0.000     0.000     0.000     0.000     0.000     0.000     0.029     1.395    -0.409     0.003     0.239     0.252     0.417     0.000     0.000     0.000     3.722     0.455     0.368     0.003     0.190     0.000     0.000     0.001     0.000     0.000     0.000     0.000     0.000     0.000     0.000     0.000 .00000E+00 .00000E+00 0.184E+00 0.404E+04 0.000E+00 0.000E+00 0.000E+00 0.000E+00 0.000E+00 0.190E+00     0.021   153.052     0.000
FRSD   43 000070009    7    0    1.20521E-03   288.000     0.000     0.000     0.000   152.507   113.279   159.279   162.038    28.483    30.454     1.523     3.050     0.000     0.000  1012.023  2004.019    14.520    14.520     0.000   120.004    31.535   167.262    82.277    27.889    30.629    25.148    26.315    17.491     0.044     0.137     0.000     0.000     0.000     0.000     0.000     0.000     0.000     0.000     0.000     0.000     0.096     2.053    -0.611     0.011     0.352     0.298     0.289     0.000     0.000     0.000     0.336     0.041     0.031     0.002     0.252     0.965     0.008     0.003     0.000     0.000     0.000     0.000     0.000     0.000     0.000     0.000 .00000E+00 .00000E+00 0.155E+00 0.444E+04 0.000E+00 0.000E+00 0.000E+00 0.000E+00 0.000E+00 0.252E+00     1.203   120.004     0.000
FRSD   44 000070010    7    0    1.13544E-01   288.000     0.000     0.000     0.000   152.507   104.977    80.593    84.216     0.000     0.000     0.000     3.050     0.000     0.000   939.194  2000.003    36.277    36.277     0.000   137.274     0.000   173.552    87.732    27.889    30.629    25.148    27.055    17.491     1.926     0.868     0.000     0.000     0.000     0.000     0.000     0.000     0.000     0.000     0.000     0.000     0.082     1.386    -0.399     0.009     0.237     0.259     0.418     0.000     0.000     0.000     4.578     0.559     0.450     0.009     0.200     0.000     0.000     0.002     0.000     0.000     0.000     0.000     0.000     0.000     0.000     0.000 .00000E+00 .00000E+00 0.317E+00 0.404E+04 0.000E+00 0.000E+00 0.000E+00 0.000E+00 0.000E+00 0.200E+00     0.002   137.274     0.000
BARR   45 000070011    7    0    1.41042E-03   288.000     0.000     0.000     0.000   152.507    97.589    50.676    54.086     0.000     0.000     0.000     3.050     0.000     0.000   932.672  2000.000   103.511   103.511     0.000    79.829     0.000   183.340    94.454    27.889    30.629    25.148    26.864    17.491    10.342     3.651     0.000     0.000     0.000     0.000     0.000     0.000     0.000     0.000     0.000     0.000     0.000     1.251    -0.394     0.000     0.214     0.236     0.399     0.000     0.000     0.000    14.463     1.769     1.446     0.041     0.083     0.000     0.000     0.005     0.000     0.000     0.000     0.000     0.000     0.000     0.000     0.000 .00000E+00 .00000E+00 0.908E+00 0.404E+04 0.000E+00 0.000E+00 0.000E+00 0.000E+00 0.000E+00 0.831E-01     0.000    79.829     0.000
BARR   46 000080001    8    0    1.44119E-02   288.000     0.000     0.000     0.000   152.558   111.015   152.695   161.998     0.688     1.225     0.061     3.051     0.000     0.000   989.233  2000.420   143.219   143.218     0.000    17.577     0.000   160.939    96.456    27.889    30.629    25.148    26.408    17.491     4.919     0.893     0.000     0.000     0.000     0.000     0.000     0.000     0.000     0.000     0.000     0.000     0.000     1.997    -0.618     0.000     0.342     0.350     0.457     0.000     0.000     0.000     9.777     1.196     0.958     0.060     0.055     0.130     0.000     0.008     0.000     0.000     0.000     0.000     0.000     0.000     0.000     0.000 .00000E+00 .00000E+00 0.247E+01 0.444E+04 0.000E+00 0.000E+00 0.000E+00 0.000E+00 0.000E+00 0.545E-01     0.143    17.577     0.000
BARR   47 000080002    8    0    1.61561E-03   288.000     0.000     0.000     0.000   152.558   105.851   130.519   135.954     0.000     0.000     0.000     3.051     0.000     0.000   939.190  2000.003   132.747   132.747     0.000    39.962     0.000   172.710    95.998    27.889    30.629    25.148    26.305    17.491     4.326     0.925     0.000     0.000     0.000     0.000     0.000     0.000     0.000     0.000     0.000     0.000     0.000     1.917    -0.607     0.000     0.328     0.342     0.450     0.000     0.000     0.000     8.836     1.081     0.866     0.076     0.090     0.000     0.000     0.008     0.000     0.000     0.000     0.000     0.000     0.000     0.000     0.000 .00000E+00 .00000E+00 0.232E+01 0.444E+04 0.000E+00 0.000E+00 0.000E+00 0.000E+00 0.000E+00 0.898E-01     0.000    39.962     0.000
AGRL   48 000080003    8    0    1.15390E-02   288.000     0.000     0.000     0.000   152.558   108.405   152.773   157.560     0.000     0.003     0.000     3.051     0.000     0.000   962.297  2000.037    45.034    45.034     0.000   123.411     0.000   168.459    89.067    27.889    30.629    25.148    26.167    17.491     2.724     1.568     0.000     0.000     0.000     0.000     0.000     0.000     0.000     0.000     0.000     0.000     0.453     2.018    -0.561     0.148     0.346     0.610     0.727     0.000     0.000     0.000     5.247     0.692     0.609     0.033     0.371     0.000     0.000     0.009     0.000     0.000     0.000     0.000     0.000     0.000     0.000     0.000 .00000E+00 .00000E+00 0.357E+00 0.444E+04 0.000E+00 0.000E+00 0.000E+00 0.000E+00 0.000E+00 0.371E+00     0.014   123.411     0.000
AGRL   49 000080004    8    0    1.13338E-02   288.000     0.000     0.000     0.000   152.558   101.402    70.990    74.683     0.000     0.000     0.000     3.051     0.000     0.000   932.622  2000.000    57.353    57.353     0.000   120.161     0.000   177.514    90.641    27.889    30.629    25.148    26.906    17.491     4.566     3.266     0.000     0.000     0.000     0.000     0.000     0.000     0.000     0.000     0.000     0.000     0.305     1.364    -0.363     0.104     0.234     0.479     0.640     0.000     0.000     0.000     7.641     0.993     0.855     0.035     0.286     0.000     0.000     0.009     0.000     0.000     0.000     0.000     0.000     0.000     0.000     0.000 .00000E+00 .00000E+00 0.402E+00 0.404E+04 0.000E+00 0.000E+00 0.000E+00 0.000E+00 0.000E+00 0.286E+00     0.000   120.161     0.000
SWCH   50 000080005    8    0    1.92343E-03   288.000     0.000     0.000     0.000   152.558   107.320   160.716   162.251   119.727   112.432     5.622     3.051     0.000     0.000  1063.597  2013.447     5.047     5.047     0.000    49.970   105.777   164.725    77.057    27.889    30.629    25.148    25.841    17.491     0.000     0.003     0.000     0.000     0.000     0.000     0.000     0.000     0.000     0.000     0.000     0.000     4.083     2.111    -0.477     1.124     0.362     1.165     0.985     0.000     0.000     0.000     0.000     0.000     0.000     0.007     0.316     2.721     0.045     0.002     0.000     0.000     0.000     0.000     0.000     0.000     0.000     0.000 .00000E+00 .00000E+00 0.106E+00 0.444E+04 0.000E+00 0.000E+00 0.000E+00 0.000E+00 0.000E+00 0.316E+00     3.931    49.970     0.000
SWCH   51 000080006    8    0    1.10261E-03   288.000     0.000     0.000     0.000   152.558    99.676    73.292    79.063     0.000     0.000     0.000     3.051     0.000     0.000   942.536  2000.005    15.082    15.082     0.000   159.121     0.000   174.206    82.606    27.889    30.629    25.148    26.703    17.491     0.000     0.026     0.000     0.000     0.000     0.000     0.000     0.000     0.000     0.000     0.000     0.000     4.193     1.444    -0.245     1.151     0.248     1.235     1.100     0.000     0.000     0.000     0.000     0.000     0.000     0.037     1.143     0.000     0.000     0.006     0.000     0.000     0.000     0.000     0.000     0.000     0.000     0.000 .00000E+00 .00000E+00 0.153E+00 0.404E+04 0.000E+00 0.000E+00 0.000E+00 0.000E+00 0.000E+00 0.114E+01     0.003   159.121     0.000
FRSE   52 000080007    8    0    1.10261E-03   288.000     0.000     0.000     0.000   152.558   115.391   160.425   162.117   166.653   170.287     8.514     3.051     0.000     0.000  1086.828  2023.009     1.994     1.940     0.000     0.007   171.693   180.579    73.628    27.889    30.629    25.148    26.395    17.491     0.000     0.001     0.000     0.000     0.000     0.000     0.000     0.000     0.000     0.000     0.000     0.000     0.021     2.064    -0.629     0.005     0.354     0.142     0.126     0.000     0.000     0.000     0.000     0.000     0.000     0.000     0.000     2.171     0.109     0.001     0.000     0.000     0.000     0.000     0.000     0.000     0.000     0.000 .00000E+00 .00000E+00 0.171E+00 0.444E+04 0.000E+00 0.000E+00 0.000E+00 0.000E+00 0.000E+00 0.135E-04     6.939     0.007     0.000
FRSE   53 000080008    8    0    1.51302E-03   288.000     0.000     0.000     0.000   152.558   115.383   160.388   162.096   164.186   167.828     8.391     3.051     0.000     0.000  1085.528  2022.680     1.990     1.990     0.000     2.201   169.273   180.303    73.622    27.889    30.629    25.148    26.394    17.491     0.000     0.029     0.000     0.000     0.000     0.000     0.000     0.000     0.000     0.000     0.000     0.000     0.021     2.063    -0.628     0.005     0.353     0.145     0.130     0.000     0.000     0.000     0.000     0.000     0.000     0.000     0.004     2.160     0.107     0.001     0.000     0.000     0.000     0.000     0.000     0.000     0.000     0.000 .00000E+00 .00000E+00 0.941E-01 0.444E+04 0.000E+00 0.000E+00 0.000E+00 0.000E+00 0.000E+00 0.352E-02     6.839     2.201     0.000
FRSE   54 000080009    8    0    1.68641E-01   288.000     0.000     0.000     0.000   152.558   112.891   158.083   162.015     9.456    14.787     0.739     3.051     0.000     0.000  1003.066  2002.037     1.681     1.681     0.000   149.414    15.305   167.023    73.256    27.889    30.629    25.148    26.375    17.491     0.078     0.659     0.000     0.000     0.000     0.000     0.000     0.000     0.000     0.000     0.000     0.000     0.047     2.034    -0.613     0.005     0.348     0.327     0.386     0.000     0.000     0.000     0.323     0.039     0.031     0.000     0.248     0.495     0.003     0.000     0.000     0.000     0.000     0.000     0.000     0.000     0.000     0.000 .00000E+00 .00000E+00 0.924E-01 0.444E+04 0.000E+00 0.000E+00 0.000E+00 0.000E+00 0.000E+00 0.248E+00     0.623   149.414     0.000
FRSE   55 000080010    8    0    1.11799E-01   288.000     0.000     0.000     0.000   152.558   107.074    84.789    88.675     0.000     0.406     0.020     3.051     0.000     0.000   960.125  2000.076    17.422    17.422     0.000   153.044     0.000   170.489    83.387    27.889    30.629    25.148    27.117    17.491     1.290     2.435     0.000     0.000     0.000     0.000     0.000     0.000     0.000     0.000     0.000     0.000     0.037     1.399    -0.408     0.004     0.240     0.252     0.408     0.000     0.000     0.000     2.992     0.366     0.294     0.003     0.192     0.000     0.000     0.001     0.000     0.000     0.000     0.000     0.000     0.000     0.000     0.000 .00000E+00 .00000E+00 0.185E+00 0.404E+04 0.000E+00 0.000E+00 0.000E+00 0.000E+00 0.000E+00 0.192E+00     0.024   153.044     0.000
BARR   56 000080011    8    0    1.10261E-03   288.000     0.000     0.000     0.000   152.558   114.809   158.179   161.998    26.466    21.693     1.085     3.051     0.000     0.000  1007.615  2002.833   100.702   100.702     0.000    32.734    20.225   154.498    94.259    27.889    30.629    25.148    26.429    17.491     2.180     0.813     0.000     0.000     0.000     0.000     0.000     0.000     0.000     0.000     0.000     0.000     0.000     2.015    -0.625     0.000     0.345     0.320     0.433     0.000     0.000     0.000     5.581     0.683     0.546     0.018     0.142     2.172     0.009     0.006     0.000     0.000     0.000     0.000     0.000     0.000     0.000     0.000 .00000E+00 .00000E+00 0.832E+00 0.444E+04 0.000E+00 0.000E+00 0.000E+00 0.000E+00 0.000E+00 0.142E+00     0.837    32.734     0.000
SWCH   57 000090001    9    0    1.51301E-03   288.000     0.000     0.000     0.000   152.571    99.681    73.289    79.059     0.000     0.000     0.000     3.051     0.000     0.000   943.070  2000.006    15.080    15.080     0.000   159.119     0.000   174.202    82.605    27.889    30.629    25.148    26.703    17.491     0.012     0.026     0.000     0.000     0.000     0.000     0.000     0.000     0.000     0.000     0.000     0.000     4.192     1.444    -0.245     1.150     0.248     1.235     1.103     0.000     0.000     0.000     0.062     0.008     0.006     0.037     1.143     0.000     0.000     0.006     0.000     0.000     0.000     0.000     0.000     0.000     0.000     0.000 .00000E+00 .00000E+00 0.153E+00 0.404E+04 0.000E+00 0.000E+00 0.000E+00 0.000E+00 0.000E+00 0.114E+01     0.003   159.119     0.000
FRSE   58 000090002    9    0    1.18776E-01   288.000     0.000     0.000     0.000   152.571   113.696   159.038   162.014    23.029    29.021     1.451     3.051     0.000     0.000  1011.662  2003.950     1.748     1.748     0.000   136.523    31.188   170.656    73.407    27.889    30.629    25.148    26.379    17.491     0.040     0.369     0.000     0.000     0.000     0.000     0.000     0.000     0.000     0.000     0.000     0.000     0.049     2.044    -0.616     0.005     0.350     0.303     0.322     0.000     0.000     0.000     0.251     0.031     0.024     0.000     0.248     0.836     0.009     0.000     0.000     0.000     0.000     0.000     0.000     0.000     0.000     0.000 .00000E+00 .00000E+00 0.928E-01 0.444E+04 0.000E+00 0.000E+00 0.000E+00 0.000E+00 0.000E+00 0.248E+00     1.197   136.523     0.000
FRSE   59 000090003    9    0    1.12620E-01   288.000     0.000     0.000     0.000   152.571   107.078    84.787    88.673     0.000     0.393     0.020     3.051     0.000     0.000   959.334  2000.069    17.421    17.421     0.000   153.042     0.000   170.485    83.386    27.889    30.629    25.148    27.117    17.491     1.368     2.561     0.000     0.000     0.000     0.000     0.000     0.000     0.000     0.000     0.000     0.000     0.036     1.398    -0.408     0.004     0.239     0.252     0.409     0.000     0.000     0.000     3.042     0.372     0.299     0.003     0.192     0.000     0.000     0.001     0.000     0.000     0.000     0.000     0.000     0.000     0.000     0.000 .00000E+00 .00000E+00 0.185E+00 0.404E+04 0.000E+00 0.000E+00 0.000E+00 0.000E+00 0.000E+00 0.192E+00     0.023   153.042     0.000
FRSE   60 000090004    9    0    1.18468E-02   288.000     0.000     0.000     0.000   152.571   139.470     8.446     9.765     0.836     0.718     0.036     3.051     0.000     0.000   949.581  2000.102   139.631   139.610     0.000     0.000     0.000   139.641    95.797    27.889    30.629    25.148    26.690    17.491     0.000     0.000     0.000     0.000     0.000     0.000     0.000     0.000     0.000     0.000     0.000     0.000     0.000     0.027    -0.008     0.000     0.005    -0.020    -0.019     0.029     0.000     0.000     0.000     0.000     0.000     0.002     0.000     0.000     0.000     0.026     0.000     0.000     0.000     0.000     0.000     0.000     0.000     0.000 .00000E+00 .00000E+00 0.250E+01 0.404E+04 0.000E+00 0.000E+00 0.000E+00 0.000E+00 0.000E+00 0.000E+00     0.031     0.000     0.000
FRSE   61 000090005    9    0    1.92342E-03   288.000     0.000     0.000     0.000   152.571   115.141   159.953   162.014    82.354    70.258     3.513     3.051     0.000     0.000  1034.134  2008.992    48.612    48.612     0.000    33.963    67.748   152.978    89.531    27.889    30.629    25.148    26.384    17.491     0.381     0.303     0.000     0.000     0.000     0.000     0.000     0.000     0.000     0.000     0.000     0.000     0.034     2.045    -0.621     0.005     0.350     0.250     0.284     0.000     0.000     0.000     2.995     0.366     0.280     0.006     0.088     2.379     0.035     0.007     0.000     0.000     0.000     0.000     0.000     0.000     0.000     0.000 .00000E+00 .00000E+00 0.367E+00 0.444E+04 0.000E+00 0.000E+00 0.000E+00 0.000E+00 0.000E+00 0.878E-01     2.655    33.963     0.000
FRSE   62 000090006    9    0    1.20521E-03   288.000     0.000     0.000     0.000   152.571   139.470     8.446     9.765     0.836     0.718     0.036     3.051     0.000     0.000   949.580  2000.102   139.629   139.629     0.000     0.000     0.000   139.660    95.797    27.889    30.629    25.148    26.690    17.491     0.000     0.000     0.000     0.000     0.000     0.000     0.000     0.000     0.000     0.000     0.000     0.000     0.000     0.027    -0.008     0.000     0.005    -0.020    -0.019     0.029     0.000     0.000     0.000     0.000     0.000     0.002     0.000     0.000     0.000     0.026     0.000     0.000     0.000     0.000     0.000     0.000     0.000     0.000 .00000E+00 .00000E+00 0.250E+01 0.404E+04 0.000E+00 0.000E+00 0.000E+00 0.000E+00 0.000E+00 0.000E+00     0.031     0.000     0.000
FRSE   63 000090007    9    0    1.16416E-02   288.000     0.000     0.000     0.000   152.571   113.764   158.463   162.014    16.984    16.735     0.837     3.051     0.000     0.000  1004.179  2002.146    47.751    47.751     0.000    96.412    15.959   160.758    89.435    27.889    30.629    25.148    26.377    17.491     0.624     0.416     0.000     0.000     0.000     0.000     0.000     0.000     0.000     0.000     0.000     0.000     0.047     2.036    -0.613     0.005     0.349     0.323     0.378     0.000     0.000     0.000     3.948     0.483     0.375     0.008     0.261     1.052     0.004     0.006     0.000     0.000     0.000     0.000     0.000     0.000     0.000     0.000 .00000E+00 .00000E+00 0.362E+00 0.444E+04 0.000E+00 0.000E+00 0.000E+00 0.000E+00 0.000E+00 0.261E+00     0.636    96.412     0.000
FRSE   64 000090008    9    0    1.61561E-03   288.000     0.000     0.000     0.000   152.571   139.470     8.446     9.765     0.836     0.718     0.036     3.051     0.000     0.000   949.580  2000.102   139.631   139.618     0.000     0.000     0.000   139.649    95.797    27.889    30.629    25.148    26.690    17.491     0.000     0.000     0.000     0.000     0.000     0.000     0.000     0.000     0.000     0.000     0.000     0.000     0.000     0.027    -0.008     0.000     0.005    -0.020    -0.019     0.029     0.000     0.000     0.000     0.000     0.000     0.002     0.000     0.000     0.000     0.026     0.000     0.000     0.000     0.000     0.000     0.000     0.000     0.000 .00000E+00 .00000E+00 0.250E+01 0.404E+04 0.000E+00 0.130E+03 0.195E+04 0.000E+00 0.000E+00 0.000E+00     0.031     0.000     0.000
FRSE    1 000010001    1    0    2.68641E-01   193.700     0.000     0.000     0.000   154.276   117.587   154.511   144.932     2.138     8.129     0.406     3.086     0.000     0.000  1000.000  2001.660     6.675     6.675     0.000    87.208     6.881   101.249    72.683    28.193    31.364    25.021    26.455    19.779     0.149     0.205     0.000     0.000     0.000     0.000     0.000     0.000     0.000     0.000     0.000     0.000     0.023     1.808    -0.571     0.003     0.310    -0.816    -0.144     0.000     7.357     1.378     0.625     0.076     0.060     0.000     0.048     0.123     0.001     0.001     0.000     0.000     0.012     0.000     0.000     2.954     5.000     0.044 .00000E+00 .00000E+00 0.481E-02 0.444E+04 0.000E+00 0.000E+00 0.000E+00 0.000E+00 0.000E+00 0.475E-01     0.485    87.208     0.000
FRSE    2 000010002    1    0    2.20520E-03   193.700     0.000     0.000     0.000   154.276   114.621    88.605    82.177    64.373   109.459     5.473     3.086     0.000     0.000  1053.602  2018.117    25.676    25.704     0.000     0.371   114.515   145.690    84.110    28.193    31.364    25.021    27.335    19.779     0.004     0.011     0.000     0.000     0.000     0.000     0.000     0.000     0.000     0.000     0.000     0.000     0.007     1.282    -0.412     0.002     0.220    -0.530    -0.188     0.000     2.401     0.722     0.055     0.007     0.005     0.000     0.000     0.255     0.038     0.006     0.000     0.000     0.012     9.781     0.000     1.561     4.719     0.023 .00000E+00 .00000E+00 0.121E-01 0.404E+04 0.000E+00 0.000E+00 0.000E+00 0.000E+00 0.000E+00 0.404E-03     5.100     0.371     0.000
FRSE    3 000010003    1    0    2.17196E+00   193.700     0.000     0.000     0.000   154.276   110.650    79.419    65.869     0.000     0.131     0.007     3.086     0.000     0.000   955.244  2000.057    20.515    20.515     0.000    88.209     0.000   108.742    82.241    28.193    31.364    25.021    27.247    19.779     1.268     0.400     0.000     0.000     0.000     0.000     0.000     0.000     0.000     0.000     0.000     0.000     0.015     1.210    -0.382     0.002     0.207    -0.874    -0.068     0.000     7.357     1.378     1.878     0.230     0.186     0.000     0.027     0.000     0.000     0.000     0.000     0.000     0.012     0.000     0.000     2.954     5.000     0.044 .00000E+00 .00000E+00 0.962E-02 0.404E+04 0.000E+00 0.000E+00 0.000E+00 0.000E+00 0.000E+00 0.272E-01     0.018    88.209     0.000
AGRL    4 000010004    1    0    2.15390E-02   193.700     0.000     0.000     0.000   154.276   100.038   155.302   147.622     0.696     1.094     0.055     3.086     0.000     0.000   987.093  2000.298    44.934    44.934     0.000    64.877     0.000   109.900    89.233    28.193    31.364    25.021    26.423    19.779     2.859     1.099     0.000     0.000   131.437     0.000     0.000     0.000     0.000     0.000     0.000     0.000     0.318     1.822    -0.525     0.104     0.312    -1.893    -0.169     0.000    31.235     3.315     4.546     0.601     0.542     5.368     8.148     0.036     0.000     0.002     0.000     0.907     0.032     0.284     0.000     0.949     0.650     0.001 .00000E+00 .00000E+00 0.212E-01 0.444E+04 0.000E+00 0.000E+00 0.000E+00 0.000E+00 0.000E+00 0.815E+01     0.089    64.877     0.000
AGRL    5 000010005    1    0    2.18468E-02   193.700     0.000     0.000     0.000   154.276    90.061    68.726    61.233     0.000     0.000     0.000     3.086     0.000     0.000   929.594  2000.000    50.304    50.304     0.000    69.237     0.000   119.541    90.370    28.193    31.364    25.021    27.143    19.779     5.524     1.610     0.000     0.000   138.328     0.000     0.000     0.000     0.000     0.000     0.000     0.000     0.241     1.211    -0.341     0.082     0.208    -1.954    -0.156     0.000    30.492     3.237     6.351     0.821     0.716     6.808    10.718     0.000     0.000     0.001     0.000     0.907     0.032     1.083     0.000     0.929     0.648     0.001 .00000E+00 .00000E+00 0.545E-01 0.404E+04 0.000E+00 0.000E+00 0.000E+00 0.000E+00 0.000E+00 0.107E+02     0.000    69.237     0.000
SWCH    6 000020001    2    0    2.30781E-03   193.700     0.000     0.000     0.000   154.268   121.243   156.681   146.334    40.109    73.956     3.698     3.085     0.000     0.000  1041.026  2011.540    11.274    11.274     0.000    40.205    77.453   132.156    76.489    28.193    31.364    25.021    26.051    19.779     0.000     0.005     0.000     0.000   109.636     0.000     0.000     0.000     0.000     0.000     0.000     0.000     3.792     1.884    -0.441     1.056     0.323    -2.694    -0.192     0.000    71.811     5.721     0.000     0.000     0.000     0.445     2.802     1.108     0.034     0.005     0.000     0.000     0.309     0.949     0.000     4.684     5.493     0.009 .00000E+00 .00000E+00 0.552E-02 0.444E+04 0.000E+00 0.000E+00 0.000E+00 0.000E+00 0.000E+00 0.280E+01     3.224    40.205     0.000
FRSE    7 000020002    2    0    2.10260E-03   193.700     0.000     0.000     0.000   154.268   119.297   156.936   149.917    78.644   130.435     6.522     3.085     0.000     0.000  1066.798  2022.920     7.461     7.462     0.000     0.631   140.403   154.997    73.073    28.193    31.364    25.021    26.472    19.779     0.000     0.007     0.000     0.000     0.000     0.000     0.000     0.000     0.000     0.000     0.000     0.000     0.012     1.836    -0.586     0.003     0.315    -0.877    -0.312     0.000     5.181     1.268     0.000     0.000     0.000     0.000     0.001     0.447     0.067     0.002     0.000     0.000     0.012     1.684     0.000     2.706     5.000     0.041 .00000E+00 .00000E+00 0.490E-02 0.444E+04 0.000E+00 0.000E+00 0.000E+00 0.000E+00 0.000E+00 0.695E-03     6.502     0.631     0.000
FRSE    8 000020003    2    0    2.27395E-01   193.700     0.000     0.000     0.000   154.268   117.413   154.242   144.030     1.645     6.414     0.321     3.085     0.000     0.000  1000.000  2001.362     6.641     6.641     0.000    88.844     3.775    99.658    72.639    28.193    31.364    25.021    26.454    19.779     0.149     0.228     0.000     0.000     0.000     0.000     0.000     0.000     0.000     0.000     0.000     0.000     0.023     1.807    -0.570     0.003     0.310    -0.813    -0.140     0.000     7.357     1.378     0.626     0.077     0.060     0.000     0.047     0.105     0.001     0.001     0.000     0.000     0.012     0.000     0.000     2.954     5.000     0.044 .00000E+00 .00000E+00 0.480E-02 0.444E+04 0.000E+00 0.000E+00 0.000E+00 0.000E+00 0.000E+00 0.468E-01     0.398    88.844     0.000
FRSE    9 000020004    2    0    2.99217E-01   193.700     0.000     0.000     0.000   154.268   110.649    79.420    65.871     0.000     0.131     0.007     3.085     0.000     0.000   955.228  2000.057    20.516    20.516     0.000    88.209     0.000   108.742    82.241    28.193    31.364    25.021    27.247    19.779     1.193     0.402     0.000     0.000     0.000     0.000     0.000     0.000     0.000     0.000     0.000     0.000     0.016     1.210    -0.381     0.002     0.207    -0.874    -0.068     0.000     7.357     1.378     1.820     0.223     0.180     0.000     0.027     0.000     0.000     0.000     0.000     0.000     0.012     0.000     0.000     2.954     5.000     0.044 .00000E+00 .00000E+00 0.962E-02 0.404E+04 0.000E+00 0.000E+00 0.000E+00 0.000E+00 0.000E+00 0.273E-01     0.018    88.209     0.000
FRSD   10 000020005    2    0    2.23599E-02   193.700     0.000     0.000     0.000   154.268   100.814    76.651    65.628     0.000     0.000     0.000     3.085     0.000     0.000   936.127  2000.003    35.266    35.266     0.000    78.904     0.000   114.171    87.119    28.193    31.364    25.021    27.212    19.779     0.913     1.004     0.000     0.000     0.000     0.000     0.000     0.000     0.000     0.000     0.000     0.000     0.055     1.220    -0.373     0.006     0.209    -0.840    -0.039     0.000     9.322     1.417     1.953     0.239     0.192     0.001     0.032     0.000     0.000     0.001     0.000     0.000     0.028     0.000     0.000     2.482     4.255     0.006 .00000E+00 .00000E+00 0.168E-01 0.404E+04 0.000E+00 0.000E+00 0.000E+00 0.000E+00 0.000E+00 0.321E-01     0.001    78.904     0.000
FRSD   11 000020006    2    0    2.71821E-03   193.700     0.000     0.000     0.000   154.268   109.886   156.124   148.649     2.208    10.777     0.539     3.085     0.000     0.000  1000.000  2001.808    44.951    44.951     0.000    52.249    10.109   107.826    89.285    28.193    31.364    25.021    26.436    19.779     0.125     0.081     0.000     0.000     0.000     0.000     0.000     0.000     0.000     0.000     0.000     0.000     0.066     1.825    -0.565     0.007     0.313    -0.804    -0.132     0.000     9.322     1.417     0.759     0.093     0.071     0.001     0.043     0.126     0.002     0.005     0.000     0.000     0.028     0.000     0.000     2.482     4.255     0.006 .00000E+00 .00000E+00 0.214E-01 0.444E+04 0.000E+00 0.000E+00 0.000E+00 0.000E+00 0.000E+00 0.434E-01     0.517    52.249     0.000
FRSD   12 000020007    2    0    2.37963E-02   193.700     0.000     0.000     0.000   154.268   100.814    76.651    65.628     0.000     0.000     0.000     3.085     0.000     0.000   937.210  2000.005    35.266    35.266     0.000    78.904     0.000   114.171    87.119    28.193    31.364    25.021    27.212    19.779     0.635     0.660     0.000     0.000     0.000     0.000     0.000     0.000     0.000     0.000     0.000     0.000     0.059     1.221    -0.372     0.006     0.209    -0.837    -0.039     0.000     9.322     1.417     1.636     0.200     0.160     0.001     0.032     0.000     0.000     0.001     0.000     0.000     0.028     0.000     0.000     2.482     4.255     0.006 .00000E+00 .00000E+00 0.168E-01 0.404E+04 0.000E+00 0.000E+00 0.000E+00 0.000E+00 0.000E+00 0.323E-01     0.001    78.904     0.000
FRSD   13 000020008    2    0    2.92342E-03   193.700     0.000     0.000     0.000   154.268   100.814    76.651    65.628     0.000     0.000     0.000     3.085     0.000     0.000   937.468  2000.005    35.266    35.266     0.000    78.904     0.000   114.171    87.119    28.193    31.364    25.021    27.212    19.779     0.474     0.583     0.000     0.000     0.000     0.000     0.000     0.000     0.000     0.000     0.000     0.000     0.062     1.224    -0.372     0.007     0.210    -0.834    -0.040     0.000     9.322     1.417     1.496     0.183     0.145     0.001     0.033     0.000     0.000     0.001     0.000     0.000     0.028     0.000     0.000     2.482     4.255     0.006 .00000E+00 .00000E+00 0.168E-01 0.404E+04 0.000E+00 0.000E+00 0.000E+00 0.000E+00 0.000E+00 0.325E-01     0.001    78.904     0.000
FRSE   14 000030001    3    0    2.35808E-01   193.700     0.000     0.000     0.000   154.243   117.673   154.661   145.442     2.427     9.118     0.456     3.085     0.000     0.000  1000.000  2001.837     6.694     6.694     0.000    86.285     8.257   101.772    72.707    28.193    31.364    25.021    26.455    19.779     0.130     0.194     0.000     0.000     0.000     0.000     0.000     0.000     0.000     0.000     0.000     0.000     0.024     1.810    -0.571     0.003     0.310    -0.818    -0.151     0.000     7.357     1.378     0.600     0.073     0.057     0.000     0.048     0.133     0.001     0.001     0.000     0.000     0.012     0.000     0.000     2.954     5.000     0.044 .00000E+00 .00000E+00 0.479E-02 0.444E+04 0.000E+00 0.000E+00 0.000E+00 0.000E+00 0.000E+00 0.477E-01     0.535    86.285     0.000
FRSE   15 000030002    3    0    2.91522E-01   193.700     0.000     0.000     0.000   154.243   110.645    79.424    65.876     0.000     0.140     0.007     3.085     0.000     0.000   956.884  2000.062    20.518    20.518     0.000    88.209     0.000   108.746    82.242    28.193    31.364    25.021    27.247    19.779     0.951     0.324     0.000     0.000     0.000     0.000     0.000     0.000     0.000     0.000     0.000     0.000     0.017     1.211    -0.381     0.002     0.207    -0.873    -0.067     0.000     7.357     1.378     1.661     0.203     0.164     0.000     0.027     0.000     0.000     0.000     0.000     0.000     0.012     0.000     0.000     2.954     5.000     0.044 .00000E+00 .00000E+00 0.960E-02 0.404E+04 0.000E+00 0.000E+00 0.000E+00 0.000E+00 0.000E+00 0.274E-01     0.019    88.209     0.000
FRSE   16 000040001    4    0    2.15596E-01   193.700     0.000     0.000     0.000   154.176   117.392   154.244   144.043     1.647     6.426     0.321     3.084     0.000     0.000  1000.000  2001.367     6.641     6.641     0.000    88.853     3.862    99.756    72.640    28.193    31.364    25.021    26.454    19.779     0.139     0.228     0.000     0.000     0.000     0.000     0.000     0.000     0.000     0.000     0.000     0.000     0.023     1.808    -0.570     0.003     0.310    -0.813    -0.143     0.000     7.357     1.378     0.614     0.075     0.059     0.000     0.047     0.105     0.001     0.001     0.000     0.000     0.012     0.000     0.000     2.954     5.000     0.044 .00000E+00 .00000E+00 0.476E-02 0.444E+04 0.000E+00 0.000E+00 0.000E+00 0.000E+00 0.000E+00 0.468E-01     0.399    88.853     0.000
FRSE   17 000040002    4    0    2.82595E-01   193.700     0.000     0.000     0.000   154.176   110.636    79.434    65.891     0.000     0.119     0.006     3.084     0.000     0.000   952.672  2000.053    20.524    20.524     0.000    88.209     0.000   108.749    82.245    28.193    31.364    25.021    27.247    19.779     1.643     0.565     0.000     0.000     0.000     0.000     0.000     0.000     0.000     0.000     0.000     0.000     0.013     1.209    -0.382     0.001     0.207    -0.876    -0.069     0.000     7.357     1.378     2.144     0.262     0.213     0.000     0.027     0.000     0.000     0.000     0.000     0.000     0.012     0.000     0.000     2.954     5.000     0.044 .00000E+00 .00000E+00 0.954E-02 0.404E+04 0.000E+00 0.000E+00 0.000E+00 0.000E+00 0.000E+00 0.271E-01     0.016    88.209     0.000
BARR   18 000040003    4    0    2.20520E-03   193.700     0.000     0.000     0.000   154.176    79.699    42.760    37.980     0.000     0.000     0.000     3.084     0.000     0.000   929.697  2000.000    73.276    73.276     0.000    52.592     0.000   125.867    93.737    28.193    31.364    25.021    27.010    19.779    24.132    15.551     0.000     0.000     0.000     0.000     0.000     0.000     0.000     0.000     0.000     0.000     0.000     1.079    -0.359     0.000     0.185     0.199     0.241     0.000     0.005     0.001    11.572     1.416     1.165     0.028     0.034     0.000     0.000     0.002     0.000     0.000     0.309     0.000     3.886     0.000     0.000     0.000 .00000E+00 .00000E+00 0.141E+01 0.404E+04 0.000E+00 0.000E+00 0.000E+00 0.000E+00 0.000E+00 0.343E-01     0.000    52.592     0.000
FRSD   19 000040004    4    0    2.91008E-01   193.700     0.000     0.000     0.000   154.176   100.816    76.689    65.664     0.000     0.000     0.000     3.084     0.000     0.000   936.447  2000.005    35.290    35.290     0.000    78.888     0.000   114.179    87.125    28.193    31.364    25.021    27.212    19.779     1.325     0.940     0.000     0.000     0.000     0.000     0.000     0.000     0.000     0.000     0.000     0.000     0.050     1.218    -0.373     0.005     0.209    -0.842    -0.040     0.000     9.322     1.417     2.386     0.291     0.235     0.001     0.032     0.000     0.000     0.001     0.000     0.000     0.028     0.000     0.000     2.482     4.255     0.006 .00000E+00 .00000E+00 0.168E-01 0.404E+04 0.000E+00 0.000E+00 0.000E+00 0.000E+00 0.000E+00 0.318E-01     0.001    78.888     0.000
AGRL   20 000040005    4    0    2.10260E-03   193.700     0.000     0.000     0.000   154.176   102.281   158.097   152.776    37.308    63.246     3.162     3.084     0.000     0.000  1027.654  2010.099    46.050    46.050     0.000    19.439    64.922   133.241    89.413    28.193    31.364    25.021    26.438    19.779     0.423     0.520     0.000     0.000   138.350     0.000     0.000     0.000     0.000     0.000     0.000     0.000     0.776     1.862    -0.506     0.276     0.319    -1.663    -0.046     0.000    30.442     3.232     2.412     0.317     0.248     2.686     2.715     3.116     0.061     0.006     0.000     0.907     0.032     1.176     0.000     0.928     0.648     0.001 .00000E+00 .00000E+00 0.218E-01 0.444E+04 0.000E+00 0.000E+00 0.000E+00 0.000E+00 0.000E+00 0.272E+01     2.829    19.439     0.000
SWCH   21 000050001    5    0    2.20521E-03   193.700     0.000     0.000     0.000   154.241   114.413    70.705    52.133     0.000     0.000     0.000     3.085     0.000     0.000   938.626  2000.002    20.136    20.136     0.000    89.074     0.000   109.212    81.998    28.193    31.364    25.021    26.918    19.779     0.040     0.077     0.000     0.000   104.298     0.000     0.000     0.000     0.000     0.000     0.000     0.000     4.062     1.253    -0.226     1.127     0.215    -2.418     0.219     0.000    73.645     5.890     0.176     0.023     0.017     2.120     6.043     0.000     0.000     0.005     0.000     0.003     0.309     0.715     0.000     4.814     5.633     0.009 .00000E+00 .00000E+00 0.793E-02 0.404E+04 0.000E+00 0.000E+00 0.000E+00 0.000E+00 0.000E+00 0.604E+01     0.002    89.074     0.000
FRSE   22 000050002    5    0    2.23393E-01   193.700     0.000     0.000     0.000   154.241   116.969   153.594   141.831     0.827     3.500     0.175     3.085     0.000     0.000   999.690  2000.852     6.574     6.574     0.000    92.423     0.568    99.819    72.534    28.193    31.364    25.021    26.452    19.779     0.178     0.279     0.000     0.000     0.000     0.000     0.000     0.000     0.000     0.000     0.000     0.000     0.023     1.804    -0.568     0.002     0.309    -0.805    -0.125     0.000     7.357     1.378     0.661     0.081     0.063     0.000     0.043     0.065     0.000     0.001     0.000     0.000     0.012     0.000     0.000     2.954     5.000     0.044 .00000E+00 .00000E+00 0.478E-02 0.444E+04 0.000E+00 0.000E+00 0.000E+00 0.000E+00 0.000E+00 0.425E-01     0.253    92.423     0.000
FRSE   23 000050003    5    0    2.10259E-03   193.700     0.000     0.000     0.000   154.241   114.609    88.607    82.182    64.653   109.874     5.494     3.085     0.000     0.000  1053.832  2018.185    25.678    26.209     0.000     0.007   114.940   146.276    84.110    28.193    31.364    25.021    27.335    19.779     0.000     0.003     0.000     0.000     0.000     0.000     0.000     0.000     0.000     0.000     0.000     0.000     0.007     1.283    -0.412     0.002     0.220    -0.530    -0.190     0.000     2.400     0.721     0.000     0.000     0.000     0.000     0.000     0.255     0.038     0.006     0.000     0.000     0.012     9.787     0.000     1.560     4.717     0.023 .00000E+00 .00000E+00 0.158E-01 0.404E+04 0.000E+00 0.000E+00 0.000E+00 0.000E+00 0.000E+00 0.205E-05     5.119     0.007     0.000
FRSE   24 000050004    5    0    2.51301E-03   193.700     0.000     0.000     0.000   154.241   114.635    88.597    82.164    62.888   107.277     5.364     3.085     0.000     0.000  1052.372  2017.764    25.672    25.673     0.000     2.255   112.300   145.230    84.108    28.193    31.364    25.021    27.334    19.779     0.021     0.051     0.000     0.000     0.000     0.000     0.000     0.000     0.000     0.000     0.000     0.000     0.007     1.278    -0.411     0.002     0.219    -0.530    -0.178     0.000     2.409     0.724     0.215     0.026     0.020     0.000     0.002     0.253     0.037     0.005     0.000     0.000     0.012     9.746     0.000     1.565     4.729     0.023 .00000E+00 .00000E+00 0.114E-01 0.404E+04 0.000E+00 0.000E+00 0.000E+00 0.000E+00 0.000E+00 0.219E-02     5.002     2.255     0.000
FRSE   25 000050005    5    0    2.21003E+00   193.700     0.000     0.000     0.000   154.241   112.106    84.093    71.527     0.080     0.699     0.035     3.085     0.000     0.000   984.944  2000.250    22.717    22.717     0.000    82.778     0.000   105.571    83.213    28.193    31.364    25.021    27.273    19.779     0.788     0.346     0.000     0.000     0.000     0.000     0.000     0.000     0.000     0.000     0.000     0.000     0.019     1.227    -0.384     0.002     0.210    -0.873    -0.072     0.000     7.357     1.378     1.634     0.200     0.160     0.000     0.027     0.006     0.000     0.001     0.000     0.000     0.012     0.000     0.000     2.954     5.000     0.044 .00000E+00 .00000E+00 0.974E-02 0.404E+04 0.000E+00 0.000E+00 0.000E+00 0.000E+00 0.000E+00 0.272E-01     0.077    82.778     0.000
BARR   26 000050006    5    0    2.41042E-03   193.700     0.000     0.000     0.000   154.241    79.711    42.731    37.947     0.000     0.000     0.000     3.085     0.000     0.000   929.630  2000.000    73.249    73.249     0.000    52.608     0.000   125.857    93.734    28.193    31.364    25.021    27.009    19.779    21.332    12.698     0.000     0.000     0.000     0.000     0.000     0.000     0.000     0.000     0.000     0.000     0.000     1.079    -0.359     0.000     0.185     0.199     0.243     0.000     0.005     0.001    11.256     1.377     1.132     0.028     0.034     0.000     0.000     0.002     0.000     0.000     0.309     0.000     3.886     0.000     0.000     0.000 .00000E+00 .00000E+00 0.141E+01 0.404E+04 0.000E+00 0.000E+00 0.000E+00 0.000E+00 0.000E+00 0.343E-01     0.000    52.608     0.000
FRSD   27 000050007    5    0    2.20931E-01   193.700     0.000     0.000     0.000   154.241   100.815    76.662    65.638     0.000     0.000     0.000     3.085     0.000     0.000   937.037  2000.001    35.273    35.273     0.000    78.899     0.000   114.173    87.120    28.193    31.364    25.021    27.212    19.779     0.856     0.724     0.000     0.000     0.000     0.000     0.000     0.000     0.000     0.000     0.000     0.000     0.056     1.220    -0.372     0.006     0.209    -0.840    -0.039     0.000     9.322     1.417     1.885     0.230     0.185     0.001     0.032     0.000     0.000     0.001     0.000     0.000     0.028     0.000     0.000     2.482     4.255     0.006 .00000E+00 .00000E+00 0.168E-01 0.404E+04 0.000E+00 0.000E+00 0.000E+00 0.000E+00 0.000E+00 0.321E-01     0.001    78.899     0.000
FRSE   28 000060001    6    0    2.41042E-03   193.700     0.000     0.000     0.000   154.279   119.295   156.920   149.902    77.720   129.082     6.454     3.086     0.000     0.000  1066.034  2022.690     7.458     7.458     0.000     1.759   138.991   154.645    73.070    28.193    31.364    25.021    26.472    19.779     0.004     0.002     0.000     0.000     0.000     0.000     0.000     0.000     0.000     0.000     0.000     0.000     0.012     1.835    -0.586     0.003     0.314    -0.878    -0.310     0.000     5.204     1.270     0.037     0.005     0.003     0.000     0.002     0.446     0.066     0.002     0.000     0.000     0.012     1.650     0.000     2.711     5.000     0.041 .00000E+00 .00000E+00 0.490E-02 0.444E+04 0.000E+00 0.000E+00 0.000E+00 0.000E+00 0.000E+00 0.176E-02     6.437     1.759     0.000
FRSE   29 000060002    6    0    2.58791E-01   193.700     0.000     0.000     0.000   154.279   118.028   155.233   147.363     3.631    13.152     0.658     3.086     0.000     0.000  1000.100  2002.560     6.764     6.764     0.000    82.652    15.584   105.743    72.799    28.193    31.364    25.021    26.457    19.779     0.111     0.155     0.000     0.000     0.000     0.000     0.000     0.000     0.000     0.000     0.000     0.000     0.024     1.813    -0.573     0.003     0.311    -0.826    -0.165     0.000     7.357     1.378     0.567     0.069     0.054     0.000     0.048     0.165     0.003     0.001     0.000     0.000     0.012     0.000     0.000     2.954     5.000     0.044 .00000E+00 .00000E+00 0.482E-02 0.444E+04 0.000E+00 0.000E+00 0.000E+00 0.000E+00 0.000E+00 0.483E-01     0.743    82.652     0.000
FRSE   30 000060003    6    0    2.10260E-03   193.700     0.000     0.000     0.000   154.279   114.654    88.595    82.156    62.517   106.728     5.336     3.086     0.000     0.000  1052.070  2017.677    25.669    25.670     0.000     2.718   111.737   145.101    84.108    28.193    31.364    25.021    27.334    19.779     0.022     0.015     0.000     0.000     0.000     0.000     0.000     0.000     0.000     0.000     0.000     0.000     0.007     1.278    -0.411     0.002     0.219    -0.531    -0.178     0.000     2.413     0.725     0.225     0.028     0.021     0.000     0.003     0.253     0.036     0.005     0.000     0.000     0.012     9.729     0.000     1.568     4.733     0.023 .00000E+00 .00000E+00 0.114E-01 0.404E+04 0.000E+00 0.000E+00 0.000E+00 0.000E+00 0.000E+00 0.265E-02     4.977     2.718     0.000
[...]
FRSE   42 000070008    7    0  3.0.68641E-01  3187.023     0.000     0.000     0.000  1511.516   882.321    65.759    86.460    10.761    10.954     0.548    30.230     0.000     0.000   900.584  2000.027   763.533   763.534     0.000  1526.820     0.000  2290.914    77.861    26.439    28.805    24.072    25.066    14.796    61.938    62.421     0.000     0.000     0.000     0.000     0.000     0.000     0.000     0.000     0.000     0.000     2.253    13.087    -6.644     0.284     2.240     0.637     1.082     0.000    10.081     1.719    55.034     6.722     5.403     0.046     2.437     0.937     0.000     0.023     0.000     3.462     0.081     0.994     0.000     9.717     6.661     6.802 .00000E+00 .00000E+00 0.188E-02 0.000E+00 0.000E+00 0.000E+00 0.000E+00 0.000E+00 0.000E+00 0.244E+01     0.560  1526.820     0.000
FRSD   43 000070009    7    0  3.0.20521E-03  3187.023     0.000     0.000     0.000  1511.516   999.316   142.368   162.855   294.050   294.016    14.701    30.230     0.000     0.000  1012.969  2002.501   750.552   750.552     0.000  1138.216   250.653  2154.521    79.859    26.439    28.805    24.072    24.256    14.796     1.426     3.005     0.000     0.000     0.000     0.000     0.000     0.000     0.000     0.000     0.000     0.000     3.844    20.978   -10.203     1.045     3.592    -0.567    -0.374     0.000    15.781     4.054    12.824     1.567     1.154     0.058     1.561     5.243     0.051     0.149     0.000     0.000     0.630    20.471     0.000    23.259     6.649    11.530 .00000E+00 .00000E+00 0.187E-02 0.000E+00 0.000E+00 0.000E+00 0.000E+00 0.000E+00 0.000E+00 0.156E+01    15.100  1138.216     0.000
FRSD   44 000070010    7    0  3.0.13544E-01  3187.023     0.000     0.000     0.000  1511.516   886.260    56.942    77.587     3.729     3.729     0.186    30.230     0.000     0.000   862.108  2000.014   961.120   961.120     0.000  1334.313     0.000  2295.616    81.892    26.439    28.805    24.072    24.730    14.796    28.879    36.513     0.000     0.000     0.000     0.000     0.000     0.000     0.000     0.000     0.000     0.000     3.786    12.536    -6.445     1.061     2.146    -1.034    -0.367     0.000    14.924     3.807    49.209     6.013     4.749     0.109     1.767     0.316     0.000     0.046     0.000    22.052     0.630    24.865     0.000    19.211     6.650     9.306 .00000E+00 .00000E+00 0.190E-02 0.000E+00 0.000E+00 0.000E+00 0.000E+00 0.000E+00 0.000E+00 0.177E+01     0.184  1334.313     0.000
BARR   45 000070011    7    0  3.0.41042E-03  3187.023     0.000     0.000     0.000  1511.516   764.491    51.966    59.099     0.000     0.000     0.000    30.230     0.000     0.000   844.949  2000.000  1777.437  1777.437     0.000   641.075     0.000  2418.512    94.379    26.439    28.805    24.072    25.245    14.796   205.382   150.703     0.000     0.000     0.000     0.000     0.000     0.000     0.000     0.000     0.000     0.000     0.015    12.845    -6.447     0.004     2.199     2.207     2.365     0.000     0.015     0.004    55.454     6.780     5.619     0.347     1.844     0.000     0.000     0.024     0.000    13.766     0.831     0.000     6.464     0.001     0.001     0.000 .00000E+00 .00000E+00 0.171E+01 0.000E+00 0.000E+00 0.000E+00 0.000E+00 0.000E+00 0.000E+00 0.184E+01     0.000   641.075     0.000
BARR   46 000080001    8    0  3.0.44119E-02  3187.023     0.000     0.000     0.000  1512.189   888.836   147.423   161.995    76.126    75.052     3.753    30.244     0.000     0.000   993.288  2000.648  2057.081  2057.081     0.000   159.985    40.334  2261.104    96.230    26.439    28.805    24.072    24.841    14.796    80.518    37.375     0.000     0.000     0.000     0.000     0.000     0.000     0.000     0.000     0.000     0.000     0.015    21.040   -10.334     0.004     3.602     3.392     3.325     0.000     0.016     0.004    49.829     6.092     4.933     0.395     1.113    15.249     0.035     0.040     0.000     3.581     0.831     0.000     6.464     0.001     0.001     0.000 .00000E+00 .00000E+00 0.213E+01 0.000E+00 0.000E+00 0.000E+00 0.000E+00 0.000E+00 0.000E+00 0.111E+01     3.703   159.985     0.000
BARR   47 000080002    8    0  3.0.61561E-03  3187.023     0.000     0.000     0.000  1512.189   844.671   134.948   142.257     4.169     4.169     0.208    30.244     0.000     0.000   863.320  2000.031  2007.509  2007.509     0.000   325.529     0.000  2333.237    95.969    26.439    28.805    24.072    24.791    14.796    74.695    54.148     0.000     0.000     0.000     0.000     0.000     0.000     0.000     0.000     0.000     0.000     0.015    20.610   -10.121     0.004     3.528     3.438     3.367     0.000     0.015     0.004    49.640     6.069     4.916     0.516     1.298     1.497     0.000     0.041     0.000     4.833     0.831     0.000     6.464     0.001     0.001     0.000 .00000E+00 .00000E+00 0.192E+01 0.000E+00 0.000E+00 0.000E+00 0.000E+00 0.000E+00 0.000E+00 0.130E+01     0.199   325.529     0.000
AGRL   48 000080003    8    0  3.0.15390E-02  3187.023     0.000     0.000     0.000  1512.189   899.446   126.393   137.003    15.873    15.874     0.794    30.244     0.000     0.000   919.814  2000.052  1108.524  1108.525     0.000  1165.780     0.000  2275.097    86.460    26.439    28.805    24.072    24.103    14.796    62.264    58.673     0.000     0.000   178.209     0.000     0.000     0.000     0.000     0.000     0.000     0.000    33.407    20.232    -9.218     7.423     3.470   -16.594   -13.823     0.000   145.606    26.276    58.313     8.430     6.829    10.301    22.000     0.764     0.000     0.248     0.000     0.723     0.474     6.536     0.000    19.666     3.797     6.839 .00000E+00 .00000E+00 0.193E-02 0.000E+00 0.000E+00 0.000E+00 0.000E+00 0.000E+00 0.000E+00 0.220E+02     0.793  1165.780     0.000
AGRL   49 000080004    8    0  3.0.13338E-02  3187.023     0.000     0.000     0.000  1512.189   839.600    54.412    68.780     0.189     0.189     0.009    30.244     0.000     0.000   845.397  2000.005  1212.982  1212.982     0.000  1132.795     0.000  2345.785    87.369    26.439    28.805    24.072    24.735    14.796    91.234    90.929     0.000     0.000   202.522     0.000     0.000     0.000     0.000     0.000     0.000     0.000    43.386    12.909    -5.534     7.184     2.214   -16.384   -13.298     0.000   150.918    24.611    68.465     9.276     7.575    10.360    28.265     0.002     0.000     0.228     0.000     8.221     0.474     5.963     0.000    17.955     3.785     6.151 .00000E+00 .00000E+00 0.193E-02 0.000E+00 0.000E+00 0.000E+00 0.000E+00 0.000E+00 0.000E+00 0.283E+02     0.009  1132.795     0.000
SWCH   50 000080005    8    0  3.0.92343E-03  3187.023     0.000     0.000     0.000  1512.189  1064.123   140.990   162.871  1076.747  1069.227    53.461    30.244     0.000     0.000  1075.347  2011.808   541.156   541.156     0.000   502.269   982.281  2079.150    73.512    26.439    28.805    24.072    23.830    14.796     0.073     0.194     0.000     0.000   119.002     0.000     0.000     0.000     0.000     0.000     0.000     0.000    32.534    21.733    -7.874     7.320     3.727   -30.213   -25.819     0.000   144.484    39.084     0.756     0.097     0.062     0.292     2.855    13.211     0.402     0.178     0.000     4.005     0.831    69.989     0.000    46.626     7.386    30.256 .00000E+00 .00000E+00 0.186E-02 0.000E+00 0.000E+00 0.000E+00 0.000E+00 0.000E+00 0.000E+00 0.286E+01    53.443   502.269     0.000
SWCH   51 000080006    8    0  3.0.10261E-03  3187.023     0.000     0.000     0.000  1512.189   898.326    47.419    87.150     6.919     6.919     0.346    30.244     0.000     0.000   874.510  2000.027   672.946   672.947     0.000  1600.702     0.000  2273.990    73.825    26.439    28.805    24.072    24.181    14.796     0.531     1.342     0.000     0.000   124.150     0.000     0.000     0.000     0.000     0.000     0.000     0.000    30.594    12.776    -3.867     6.622     2.193   -23.515   -19.443     0.000   128.942    31.530     3.792     0.491     0.337     1.416    10.071     0.072     0.000     0.165     0.000    46.364     0.831    70.839     0.000    34.021     7.517    22.112 .00000E+00 .00000E+00 0.186E-02 0.000E+00 0.000E+00 0.000E+00 0.000E+00 0.000E+00 0.000E+00 0.101E+02     0.341  1600.702     0.000
FRSE   52 000080007    8    0  3.0.10261E-03  3187.023     0.000     0.000     0.000  1512.189   997.751   155.002   162.908  1724.897  1719.379    85.969    30.244     0.000     0.000  1114.462  2020.411   462.711   462.377     0.000     0.082  1598.283  2147.052    72.671    26.439    28.805    24.072    24.633    14.796     0.010     0.243     0.000     0.000     0.000     0.000     0.000     0.000     0.000     0.000     0.000     0.000     0.998    21.744   -10.553     0.226     3.723    -0.056     0.001     0.000     5.894     1.338     0.210     0.026     0.018     0.008     0.000    16.889     0.622     0.121     0.000     0.000     0.081    14.437     0.000     7.514     6.653     5.260 .00000E+00 .00000E+00 0.189E-02 0.000E+00 0.000E+00 0.000E+00 0.000E+00 0.000E+00 0.000E+00 0.104E-03    86.309     0.082     0.000
FRSE   53 000080008    8    0  3.0.51302E-03  3187.023     0.000     0.000     0.000  1512.189   997.544   154.965   162.841  1700.248  1694.774    84.739    30.244     0.000     0.000  1112.897  2020.121   462.477   462.458     0.000    25.068  1574.969  2147.569    72.665    26.439    28.805    24.072    24.633    14.796     0.376     1.200     0.000     0.000     0.000     0.000     0.000     0.000     0.000     0.000     0.000     0.000     1.000    21.719   -10.542     0.226     3.718    -0.018     0.057     0.000     5.910     1.341     4.362     0.534     0.375     0.008     0.031    16.755     0.610     0.115     0.000     0.000     0.081    14.353     0.000     7.527     6.654     5.269 .00000E+00 .00000E+00 0.192E-02 0.000E+00 0.000E+00 0.000E+00 0.000E+00 0.000E+00 0.000E+00 0.315E-01    85.074    25.068     0.000
FRSE   54 000080009    8    0  3.0.68641E-01  3187.023     0.000     0.000     0.000  1512.189   951.958   143.342   162.574   167.371   167.823     8.391    30.244     0.000     0.000  1005.537  2001.550   442.338   442.339     0.000  1619.205   129.800  2199.858    70.518    26.439    28.805    24.072    24.518    14.796    12.885    21.182     0.000     0.000     0.000     0.000     0.000     0.000     0.000     0.000     0.000     0.000     2.548    20.922   -10.205     0.291     3.582     1.548     1.683     0.000    11.049     1.767    45.625     5.572     4.288     0.017     2.602     5.552     0.029     0.038     0.000     0.000     0.081     0.067     0.000    10.156     6.661     7.109 .00000E+00 .00000E+00 0.186E-02 0.000E+00 0.000E+00 0.000E+00 0.000E+00 0.000E+00 0.000E+00 0.260E+01     8.514  1619.205     0.000
FRSE   55 000080010    8    0  3.0.11799E-01  3187.023     0.000     0.000     0.000  1512.189   882.381    65.752    86.487    11.973    12.186     0.609    30.244     0.000     0.000   906.741  2000.036   763.492   763.492     0.000  1525.579     0.000  2289.695    77.859    26.439    28.805    24.072    25.066    14.796    35.352    43.976     0.000     0.000     0.000     0.000     0.000     0.000     0.000     0.000     0.000     0.000     2.295    13.128    -6.647     0.289     2.247     0.633     1.068     0.000    10.098     1.720    53.196     6.497     5.166     0.048     2.423     1.050     0.000     0.029     0.000     3.465     0.081     0.949     0.000     9.725     6.661     6.807 .00000E+00 .00000E+00 0.188E-02 0.000E+00 0.000E+00 0.000E+00 0.000E+00 0.000E+00 0.000E+00 0.242E+01     0.623  1525.579     0.000
BARR   56 000080011    8    0  3.0.10261E-03  3187.023     0.000     0.000     0.000  1512.189   924.456   153.770   162.552   263.391   261.504    13.075    30.244     0.000     0.000  1013.585  2002.999  1713.208  1713.208     0.000   281.481   217.085  2224.711    94.004    26.439    28.805    24.072    24.866    14.796    43.100    39.324     0.000     0.000     0.000     0.000     0.000     0.000     0.000     0.000     0.000     0.000     0.016    21.280   -10.437     0.004     3.643     3.131     3.112     0.000     0.016     0.004    47.894     5.855     4.713     0.135     1.240    18.399     0.123     0.045     0.000     3.117     0.831     0.000     6.464     0.001     0.001     0.000 .00000E+00 .00000E+00 0.136E+01 0.000E+00 0.000E+00 0.000E+00 0.000E+00 0.000E+00 0.000E+00 0.124E+01    12.937   281.481     0.000
SWCH   57 000090001    9    0  3.0.51301E-03  3187.023     0.000     0.000     0.000  1512.362   898.338    47.417    87.157     7.300     7.300     0.365    30.247     0.000     0.000   876.122  2000.027   672.934   672.934     0.000  1600.318     0.000  2273.612    73.824    26.439    28.805    24.072    24.181    14.796     0.606     1.141     0.000     0.000   124.153     0.000     0.000     0.000     0.000     0.000     0.000     0.000    30.577    12.768    -3.870     6.618     2.192   -23.515   -19.436     0.000   128.934    31.528     4.269     0.553     0.380     1.416    10.067     0.077     0.000     0.164     0.000    46.375     0.831    70.840     0.000    34.018     7.517    22.110 .00000E+00 .00000E+00 0.187E-02 0.000E+00 0.000E+00 0.000E+00 0.000E+00 0.000E+00 0.000E+00 0.101E+02     0.359  1600.318     0.000
FRSE   58 000090002    9    0  3.0.18776E-01  3187.023     0.000     0.000     0.000  1512.362   964.792   147.608   162.575   310.581   310.318    15.516    30.247     0.000     0.000  1016.822  2003.395   449.109   449.110     0.000  1457.015   265.058  2186.799    71.344    26.439    28.805    24.072    24.548    14.796     6.602    12.060     0.000     0.000     0.000     0.000     0.000     0.000     0.000     0.000     0.000     0.000     1.883    21.192   -10.295     0.287     3.628     1.363     1.479     0.000     9.449     1.727    38.002     4.644     3.501     0.014     2.204     7.157     0.064     0.056     0.000     0.000     0.081     1.559     0.000     9.892     6.661     6.925 .00000E+00 .00000E+00 0.188E-02 0.000E+00 0.000E+00 0.000E+00 0.000E+00 0.000E+00 0.000E+00 0.220E+01    15.617  1457.015     0.000
FRSE   59 000090003    9    0  3.0.12620E-01  3187.023     0.000     0.000     0.000  1512.362   882.397    65.751    86.494    11.637    11.844     0.592    30.247     0.000     0.000   904.974  2000.029   763.481   763.481     0.000  1525.908     0.000  2289.994    77.859    26.439    28.805    24.072    25.066    14.796    37.472    46.244     0.000     0.000     0.000     0.000     0.000     0.000     0.000     0.000     0.000     0.000     2.291    13.122    -6.646     0.288     2.246     0.633     1.071     0.000    10.098     1.720    53.334     6.514     5.186     0.048     2.429     1.025     0.000     0.028     0.000     3.466     0.081     0.948     0.000     9.725     6.661     6.807 .00000E+00 .00000E+00 0.188E-02 0.000E+00 0.000E+00 0.000E+00 0.000E+00 0.000E+00 0.000E+00 0.243E+01     0.605  1525.908     0.000
FRSE   60 000090004    9    0  3.0.18468E-02  3187.023     0.000     0.000     0.000  1512.362  1050.147    10.725    11.391    11.956    11.866     0.593    30.247     0.000     0.000   894.974  2000.109  2121.687  2121.656     0.000     0.000     0.000  2122.246    89.880    26.439    28.805    24.072    24.855    14.796     0.000     0.000     0.000     0.000     0.000     0.000     0.000     0.000     0.000     0.000     0.000     0.000     0.008     0.253    -0.127     0.008     0.043    -0.332    -0.313     0.206     0.040     0.020     0.000     0.000     0.000     0.012     0.000     0.002     0.000     0.371     0.000    21.711     0.081    63.441     0.000     0.075     1.594     0.052 .00000E+00 .00000E+00 0.248E+01 0.000E+00 0.000E+00 0.000E+00 0.000E+00 0.000E+00 0.000E+00 0.000E+00     0.590     0.000     0.000
FRSE   61 000090005    9    0  3.0.92342E-03  3187.023     0.000     0.000     0.000  1512.362   988.194   152.784   162.573   683.733   679.284    33.964    30.247     0.000     0.000  1045.380  2008.256  1214.050  1214.050     0.000   298.144   612.677  2158.795    88.928    26.439    28.805    24.072    24.583    14.796     5.139     5.068     0.000     0.000     0.000     0.000     0.000     0.000     0.000     0.000     0.000     0.000     1.747    21.405   -10.362     0.277     3.665     1.009     1.160     0.000     8.679     1.661    34.639     4.235     3.163     0.073     0.608    12.789     0.221     0.150     0.000     0.000     0.081     3.769     0.000     9.406     6.661     6.584 .00000E+00 .00000E+00 0.215E-02 0.000E+00 0.000E+00 0.000E+00 0.000E+00 0.000E+00 0.000E+00 0.608E+00    33.924   298.144     0.000
FRSE   62 000090006    9    0  3.0.20521E-03  3187.023     0.000     0.000     0.000  1512.362  1050.141    10.724    11.390    11.956    11.865     0.593    30.247     0.000     0.000   894.971  2000.109  2121.671  2121.671     0.000     0.001     0.000  2122.262    89.880    26.439    28.805    24.072    24.855    14.796     0.000     0.000     0.000     0.000     0.000     0.000     0.000     0.000     0.000     0.000     0.000     0.000     0.008     0.253    -0.127     0.008     0.043    -0.332    -0.313     0.206     0.040     0.020     0.000     0.000     0.000     0.012     0.000     0.002     0.000     0.371     0.000    21.712     0.081    63.441     0.000     0.075     1.594     0.052 .00000E+00 .00000E+00 0.248E+01 0.000E+00 0.000E+00 0.000E+00 0.000E+00 0.000E+00 0.000E+00 0.000E+00     0.590     0.001     0.000
FRSE   63 000090007    9    0  3.0.16416E-02  3187.023     0.000     0.000     0.000  1512.362   962.696   144.617   162.576   179.515   178.980     8.949    30.247     0.000     0.000  1007.696  2001.869  1189.680  1189.680     0.000   850.304   139.648  2188.606    88.242    26.439    28.805    24.072    24.527    14.796     8.151     8.897     0.000     0.000     0.000     0.000     0.000     0.000     0.000     0.000     0.000     0.000     2.757    21.017   -10.217     0.292     3.598     1.539     1.663     0.000    11.311     1.769    41.165     5.027     3.845     0.108     2.066     7.564     0.040     0.107     0.000     0.000     0.081     0.000     0.000    10.171     6.661     7.120 .00000E+00 .00000E+00 0.207E-02 0.000E+00 0.000E+00 0.000E+00 0.000E+00 0.000E+00 0.000E+00 0.207E+01     8.974   850.304     0.000
FRSE   64 000090008    9    0  3.0.61561E-03  3187.023     0.000     0.000     0.000  1512.362  1050.147    10.725    11.391    11.956    11.866     0.593    30.247     0.000     0.000   894.973  2000.109  2121.685  2121.667     0.000     0.000     0.000  2122.256    89.880    26.439    28.805    24.072    24.855    14.796     0.000     0.000     0.000     0.000     0.000     0.000     0.000     0.000     0.000     0.000     0.000     0.000     0.008     0.253    -0.127     0.008     0.043    -0.332    -0.313     0.206     0.040     0.020     0.000     0.000     0.000     0.012     0.000     0.002     0.000     0.371     0.000    21.712     0.081    63.441     0.000     0.075     1.594     0.052 .00000E+00 .00000E+00 0.248E+01 0.000E+00 0.000E+00 0.130E+03 0.195E+04 0.000E+00 0.000E+00 0.000E+00     0.590     0.000     0.000
