1
    SWAT Dec 23 2016    VER 2016/Rev 664                                                                 0/ 0/   0      0: 0: 0

    General Input/Output section (file.cio):                                        
    2/7/2020 13:52:59 QSWAT Workflow v1.5.2                                         
                                                                                    


       RCH      GIS   MON     AREAkm2  FLOW_INcms FLOW_OUTcms     EVAPcms    TLOSScms  SED_INtons SED_OUTtons SEDCONCmg/L   ORGN_INkg  ORGN_OUTkg   ORGP_INkg  ORGP_OUTkg    NO3_INkg   NO3_OUTkg    NH4_INkg   NH4_OUTkg    NO2_INkg   NO2_OUTkg   MINP_INkg  MINP_OUTkg   CHLA_INkg  CHLA_OUTkg   CBOD_INkg  CBOD_OUTkg  DISOX_INkg DISOX_OUTkg SOLPST_INmgSOLPST_OUTmg SORPST_INmgSORPST_OUTmg  REACTPSTmg    VOLPSTmg  SETTLPSTmgRESUSP_PSTmgDIFFUSEPSTmgREACBEDPSTmg   BURYPSTmg   BED_PSTmg BACTP_OUTctBACTLP_OUTct  CMETAL#1kg  CMETAL#2kg  CMETAL#3kg     TOT Nkg     TOT Pkg NO3ConcMg/l    WTMPdegc
REACH    1        0     1  0.2442E+00  0.1543E-01  0.1542E-01  0.8039E-05  0.0000E+00  0.4062E+02  0.4062E+02  0.4330E+03  0.6839E+02  0.6833E+02  0.1517E+02  0.1516E+02  0.5122E+01  0.5120E+01  0.0000E+00  0.3618E-01  0.0000E+00  0.0000E+00  0.2229E-01  0.3479E-01  0.1422E+00  0.1353E+00  0.2077E+04  0.2067E+04  0.3132E+03  0.1600E+03  0.0000E+00  0.0000E+00  0.0000E+00  0.0000E+00  0.0000E+00  0.0000E+00  0.0000E+00  0.0000E+00  0.0000E+00  0.0000E+00  0.0000E+00  0.0000E+00  0.0000E+00  0.0000E+00  0.0000E+00  0.0000E+00  0.0000E+00  0.7349E+02  0.1519E+02  0.0000E+00  0.0000E+00
REACH    2        0     1  0.1348E+00  0.8534E-02  0.8533E-02  0.6267E-06  0.0000E+00  0.2219E+02  0.2219E+02  0.4234E+03  0.3930E+02  0.3929E+02  0.8685E+01  0.8684E+01  0.2746E+01  0.2746E+01  0.0000E+00  0.2837E-02  0.0000E+00  0.0000E+00  0.1317E-01  0.1415E-01  0.8285E-01  0.8232E-01  0.1164E+04  0.1163E+04  0.1714E+03  0.8956E+02  0.0000E+00  0.0000E+00  0.0000E+00  0.0000E+00  0.0000E+00  0.0000E+00  0.0000E+00  0.0000E+00  0.0000E+00  0.0000E+00  0.0000E+00  0.0000E+00  0.0000E+00  0.0000E+00  0.0000E+00  0.0000E+00  0.0000E+00  0.4204E+02  0.8698E+01  0.0000E+00  0.0000E+00
REACH    3        0     1  0.1273E+00  0.8055E-02  0.8053E-02  0.2262E-05  0.0000E+00  0.1578E+02  0.1578E+02  0.3211E+03  0.3110E+02  0.3109E+02  0.6866E+01  0.6862E+01  0.2667E+01  0.2667E+01  0.0000E+00  0.6871E-02  0.0000E+00  0.0000E+00  0.1060E-01  0.1288E-01  0.5825E-01  0.5681E-01  0.8319E+03  0.8303E+03  0.1639E+03  0.9010E+02  0.0000E+00  0.0000E+00  0.0000E+00  0.0000E+00  0.0000E+00  0.0000E+00  0.0000E+00  0.0000E+00  0.0000E+00  0.0000E+00  0.0000E+00  0.0000E+00  0.0000E+00  0.0000E+00  0.0000E+00  0.0000E+00  0.0000E+00  0.3376E+02  0.6875E+01  0.0000E+00  0.0000E+00
REACH    4        0     1  0.1895E+00  0.1214E-01  0.1213E-01  0.5983E-05  0.0000E+00  0.4543E+02  0.4543E+02  0.6243E+03  0.8188E+02  0.8182E+02  0.1809E+02  0.1807E+02  0.3849E+01  0.3848E+01  0.0000E+00  0.3887E-01  0.0000E+00  0.0000E+00  0.3031E-01  0.4394E-01  0.2995E+00  0.2858E+00  0.3139E+04  0.3124E+04  0.2307E+03  0.1032E+03  0.0000E+00  0.0000E+00  0.0000E+00  0.0000E+00  0.0000E+00  0.0000E+00  0.0000E+00  0.0000E+00  0.0000E+00  0.0000E+00  0.0000E+00  0.0000E+00  0.0000E+00  0.0000E+00  0.0000E+00  0.0000E+00  0.0000E+00  0.8570E+02  0.1811E+02  0.0000E+00  0.0000E+00
REACH    5        0     1  0.2556E+00  0.1583E-01  0.1582E-01  0.6765E-05  0.0000E+00  0.3311E+02  0.3311E+02  0.3434E+03  0.7625E+02  0.7620E+02  0.1681E+02  0.1679E+02  0.5063E+01  0.5061E+01  0.0000E+00  0.2945E-01  0.0000E+00  0.0000E+00  0.3191E-01  0.4199E-01  0.2021E+00  0.1942E+00  0.2201E+04  0.2193E+04  0.3112E+03  0.1474E+03  0.0000E+00  0.0000E+00  0.0000E+00  0.0000E+00  0.0000E+00  0.0000E+00  0.0000E+00  0.0000E+00  0.0000E+00  0.0000E+00  0.0000E+00  0.0000E+00  0.0000E+00  0.0000E+00  0.0000E+00  0.0000E+00  0.0000E+00  0.8129E+02  0.1684E+02  0.0000E+00  0.0000E+00
REACH    6        0     1  0.5361E+00  0.3358E-01  0.3357E-01  0.1220E-04  0.0000E+00  0.6538E+02  0.1718E+02  0.1504E+03  0.1400E+03  0.1399E+03  0.3088E+02  0.3085E+02  0.1106E+02  0.1106E+02  0.3633E-01  0.1051E+00  0.0000E+00  0.1082E-04  0.6671E-01  0.9208E-01  0.3131E+00  0.3020E+00  0.3894E+04  0.3876E+04  0.4366E+03  0.3401E+03  0.0000E+00  0.0000E+00  0.0000E+00  0.0000E+00  0.0000E+00  0.0000E+00  0.0000E+00  0.0000E+00  0.0000E+00  0.0000E+00  0.0000E+00  0.0000E+00  0.0000E+00  0.0000E+00  0.0000E+00  0.0000E+00  0.0000E+00  0.1511E+03  0.3094E+02  0.0000E+00  0.0000E+00
REACH    7        0     1  0.8570E+00  0.5397E-01  0.5396E-01  0.9195E-05  0.0000E+00  0.8418E+02  0.3237E+02  0.1745E+03  0.2616E+03  0.2615E+03  0.5787E+02  0.5784E+02  0.1783E+02  0.1783E+02  0.1440E+00  0.2087E+00  0.1082E-04  0.5095E-05  0.1626E+00  0.1855E+00  0.7321E+00  0.7198E+00  0.8403E+04  0.8383E+04  0.6063E+03  0.4991E+03  0.0000E+00  0.0000E+00  0.0000E+00  0.0000E+00  0.0000E+00  0.0000E+00  0.0000E+00  0.0000E+00  0.0000E+00  0.0000E+00  0.0000E+00  0.0000E+00  0.0000E+00  0.0000E+00  0.0000E+00  0.0000E+00  0.0000E+00  0.2795E+03  0.5803E+02  0.0000E+00  0.0000E+00
REACH    8        0     1  0.1082E+01  0.6813E-01  0.6811E-01  0.1528E-04  0.0000E+00  0.6010E+02  0.3598E+02  0.1503E+03  0.3132E+03  0.3131E+03  0.6932E+02  0.6926E+02  0.2275E+02  0.2275E+02  0.2116E+00  0.3324E+00  0.5095E-05  0.4629E-04  0.2096E+00  0.2525E+00  0.9887E+00  0.9652E+00  0.1037E+05  0.1033E+05  0.7034E+03  0.5827E+03  0.0000E+00  0.0000E+00  0.0000E+00  0.0000E+00  0.0000E+00  0.0000E+00  0.0000E+00  0.0000E+00  0.0000E+00  0.0000E+00  0.0000E+00  0.0000E+00  0.0000E+00  0.0000E+00  0.0000E+00  0.0000E+00  0.0000E+00  0.3362E+03  0.6952E+02  0.0000E+00  0.0000E+00
REACH    9        0     1  0.1363E+01  0.8586E-01  0.8586E-01  0.6864E-05  0.0000E+00  0.7854E+02  0.4776E+02  0.1587E+03  0.3866E+03  0.3866E+03  0.8557E+02  0.8554E+02  0.2871E+02  0.2871E+02  0.3686E+00  0.4236E+00  0.4629E-04  0.2184E-04  0.2981E+00  0.3177E+00  0.1117E+01  0.1108E+01  0.1251E+05  0.1250E+05  0.7907E+03  0.7544E+03  0.0000E+00  0.0000E+00  0.0000E+00  0.0000E+00  0.0000E+00  0.0000E+00  0.0000E+00  0.0000E+00  0.0000E+00  0.0000E+00  0.0000E+00  0.0000E+00  0.0000E+00  0.0000E+00  0.0000E+00  0.0000E+00  0.0000E+00  0.4157E+03  0.8586E+02  0.0000E+00  0.0000E+00
REACH    1        0     2  0.2442E+00  0.1117E-01  0.1117E-01  0.8816E-05  0.0000E+00  0.2429E+02  0.2429E+02  0.1794E+03  0.3846E+02  0.3843E+02  0.8541E+01  0.8532E+01  0.6122E+01  0.6118E+01  0.0000E+00  0.1966E-01  0.0000E+00  0.0000E+00  0.1221E-01  0.1862E-01  0.3485E+00  0.3368E+00  0.2884E+04  0.2872E+04  0.1806E+03  0.9360E+02  0.0000E+00  0.0000E+00  0.0000E+00  0.0000E+00  0.0000E+00  0.0000E+00  0.0000E+00  0.0000E+00  0.0000E+00  0.0000E+00  0.0000E+00  0.0000E+00  0.0000E+00  0.0000E+00  0.0000E+00  0.0000E+00  0.0000E+00  0.4457E+02  0.8551E+01  0.0000E+00  0.0000E+00
REACH    2        0     2  0.1348E+00  0.6199E-02  0.6199E-02  0.6590E-06  0.0000E+00  0.1275E+02  0.1275E+02  0.1646E+03  0.2105E+02  0.2105E+02  0.4650E+01  0.4649E+01  0.5301E+00  0.5301E+00  0.0000E+00  0.1466E-02  0.0000E+00  0.0000E+00  0.7312E-02  0.7791E-02  0.1717E+00  0.1709E+00  0.1546E+04  0.1545E+04  0.9866E+02  0.6102E+02  0.0000E+00  0.0000E+00  0.0000E+00  0.0000E+00  0.0000E+00  0.0000E+00  0.0000E+00  0.0000E+00  0.0000E+00  0.0000E+00  0.0000E+00  0.0000E+00  0.0000E+00  0.0000E+00  0.0000E+00  0.0000E+00  0.0000E+00  0.2158E+02  0.4657E+01  0.0000E+00  0.0000E+00
REACH    3        0     2  0.1273E+00  0.5829E-02  0.5826E-02  0.2409E-05  0.0000E+00  0.9175E+01  0.9175E+01  0.1270E+03  0.1735E+02  0.1735E+02  0.3827E+01  0.3825E+01  0.4282E+00  0.4280E+00  0.0000E+00  0.3316E-02  0.0000E+00  0.0000E+00  0.6714E-02  0.7699E-02  0.1307E+00  0.1286E+00  0.1134E+04  0.1133E+04  0.9511E+02  0.6369E+02  0.0000E+00  0.0000E+00  0.0000E+00  0.0000E+00  0.0000E+00  0.0000E+00  0.0000E+00  0.0000E+00  0.0000E+00  0.0000E+00  0.0000E+00  0.0000E+00  0.0000E+00  0.0000E+00  0.0000E+00  0.0000E+00  0.0000E+00  0.1778E+02  0.3833E+01  0.0000E+00  0.0000E+00
REACH    4        0     2  0.1895E+00  0.8989E-02  0.8982E-02  0.6376E-05  0.0000E+00  0.2634E+02  0.2634E+02  0.2400E+03  0.4064E+02  0.4062E+02  0.8979E+01  0.8973E+01  0.6517E+00  0.6510E+00  0.0000E+00  0.1501E-01  0.0000E+00  0.0000E+00  0.1190E-01  0.1679E-01  0.4560E+00  0.4431E+00  0.3638E+04  0.3626E+04  0.1304E+03  0.6409E+02  0.0000E+00  0.0000E+00  0.0000E+00  0.0000E+00  0.0000E+00  0.0000E+00  0.0000E+00  0.0000E+00  0.0000E+00  0.0000E+00  0.0000E+00  0.0000E+00  0.0000E+00  0.0000E+00  0.0000E+00  0.0000E+00  0.0000E+00  0.4129E+02  0.8989E+01  0.0000E+00  0.0000E+00
REACH    5        0     2  0.2556E+00  0.1160E-01  0.1159E-01  0.7347E-05  0.0000E+00  0.1963E+02  0.1963E+02  0.1369E+03  0.4028E+02  0.4026E+02  0.8877E+01  0.8872E+01  0.9162E+00  0.9153E+00  0.0000E+00  0.1358E-01  0.0000E+00  0.0000E+00  0.1616E-01  0.2046E-01  0.3949E+00  0.3851E+00  0.2883E+04  0.2875E+04  0.1780E+03  0.8764E+02  0.0000E+00  0.0000E+00  0.0000E+00  0.0000E+00  0.0000E+00  0.0000E+00  0.0000E+00  0.0000E+00  0.0000E+00  0.0000E+00  0.0000E+00  0.0000E+00  0.0000E+00  0.0000E+00  0.0000E+00  0.0000E+00  0.0000E+00  0.4119E+02  0.8892E+01  0.0000E+00  0.0000E+00
REACH    6        0     2  0.5361E+00  0.2450E-01  0.2449E-01  0.1344E-04  0.0000E+00  0.3850E+02  0.1120E+02  0.1184E+03  0.7665E+02  0.7660E+02  0.1689E+02  0.1688E+02  0.1942E+01  0.1941E+01  0.1690E-01  0.4895E-01  0.0000E+00  0.8669E-05  0.3700E-01  0.4867E-01  0.6533E+00  0.6384E+00  0.5201E+04  0.5180E+04  0.2687E+03  0.2152E+03  0.0000E+00  0.0000E+00  0.0000E+00  0.0000E+00  0.0000E+00  0.0000E+00  0.0000E+00  0.0000E+00  0.0000E+00  0.0000E+00  0.0000E+00  0.0000E+00  0.0000E+00  0.0000E+00  0.0000E+00  0.0000E+00  0.0000E+00  0.7859E+02  0.1693E+02  0.0000E+00  0.0000E+00
REACH    7        0     2  0.8570E+00  0.3958E-01  0.3957E-01  0.1025E-04  0.0000E+00  0.5236E+02  0.2195E+02  0.1384E+03  0.1419E+03  0.1418E+03  0.3145E+02  0.3144E+02  0.2102E+02  0.2101E+02  0.6397E-01  0.9375E-01  0.8669E-05  0.2092E-04  0.7464E-01  0.8473E-01  0.1468E+01  0.1452E+01  0.1082E+05  0.1080E+05  0.3736E+03  0.3030E+03  0.0000E+00  0.0000E+00  0.0000E+00  0.0000E+00  0.0000E+00  0.0000E+00  0.0000E+00  0.0000E+00  0.0000E+00  0.0000E+00  0.0000E+00  0.0000E+00  0.0000E+00  0.0000E+00  0.0000E+00  0.0000E+00  0.0000E+00  0.1629E+03  0.3152E+02  0.0000E+00  0.0000E+00
REACH    8        0     2  0.1082E+01  0.4982E-01  0.4980E-01  0.1696E-04  0.0000E+00  0.4000E+02  0.2330E+02  0.1225E+03  0.1734E+03  0.1733E+03  0.3844E+02  0.3841E+02  0.2750E+02  0.2749E+02  0.9522E-01  0.1548E+00  0.2092E-04  0.4740E-04  0.1006E+00  0.1211E+00  0.1829E+01  0.1801E+01  0.1332E+05  0.1328E+05  0.4313E+03  0.3408E+03  0.0000E+00  0.0000E+00  0.0000E+00  0.0000E+00  0.0000E+00  0.0000E+00  0.0000E+00  0.0000E+00  0.0000E+00  0.0000E+00  0.0000E+00  0.0000E+00  0.0000E+00  0.0000E+00  0.0000E+00  0.0000E+00  0.0000E+00  0.2010E+03  0.3853E+02  0.0000E+00  0.0000E+00
REACH    9        0     2  0.1363E+01  0.6268E-01  0.6268E-01  0.7655E-05  0.0000E+00  0.4875E+02  0.3126E+02  0.1294E+03  0.2148E+03  0.2148E+03  0.4762E+02  0.4761E+02  0.3417E+02  0.3417E+02  0.1744E+00  0.2008E+00  0.4740E-04  0.6156E-04  0.1480E+00  0.1571E+00  0.2163E+01  0.2151E+01  0.1630E+05  0.1628E+05  0.4637E+03  0.4430E+03  0.0000E+00  0.0000E+00  0.0000E+00  0.0000E+00  0.0000E+00  0.0000E+00  0.0000E+00  0.0000E+00  0.0000E+00  0.0000E+00  0.0000E+00  0.0000E+00  0.0000E+00  0.0000E+00  0.0000E+00  0.0000E+00  0.0000E+00  0.2492E+03  0.4776E+02  0.0000E+00  0.0000E+00
REACH    1        0     3  0.2442E+00  0.1155E-01  0.1154E-01  0.8294E-05  0.0000E+00  0.1585E+01  0.1585E+01  0.7329E+01  0.2560E+01  0.2557E+01  0.5940E+00  0.5930E+00  0.1979E+00  0.1978E+00  0.0000E+00  0.4702E-02  0.0000E+00  0.0000E+00  0.1982E-01  0.2060E-01  0.3830E-01  0.3675E-01  0.2957E+03  0.2936E+03  0.2224E+03  0.1186E+03  0.0000E+00  0.0000E+00  0.0000E+00  0.0000E+00  0.0000E+00  0.0000E+00  0.0000E+00  0.0000E+00  0.0000E+00  0.0000E+00  0.0000E+00  0.0000E+00  0.0000E+00  0.0000E+00  0.0000E+00  0.0000E+00  0.0000E+00  0.2760E+01  0.6136E+00  0.0000E+00  0.0000E+00
REACH    2        0     3  0.1348E+00  0.6473E-02  0.6472E-02  0.6125E-06  0.0000E+00  0.2158E+00  0.2158E+00  0.1287E+01  0.5098E+00  0.5097E+00  0.1108E+00  0.1108E+00  0.6698E-01  0.6697E-01  0.0000E+00  0.2512E-03  0.0000E+00  0.0000E+00  0.1080E-01  0.1083E-01  0.4360E-02  0.4335E-02  0.3712E+02  0.3709E+02  0.1246E+03  0.1006E+03  0.0000E+00  0.0000E+00  0.0000E+00  0.0000E+00  0.0000E+00  0.0000E+00  0.0000E+00  0.0000E+00  0.0000E+00  0.0000E+00  0.0000E+00  0.0000E+00  0.0000E+00  0.0000E+00  0.0000E+00  0.0000E+00  0.0000E+00  0.5769E+00  0.1216E+00  0.0000E+00  0.0000E+00
REACH    3        0     3  0.1273E+00  0.6006E-02  0.6004E-02  0.2315E-05  0.0000E+00  0.1528E+00  0.1528E+00  0.9636E+00  0.4017E+00  0.4015E+00  0.8726E-01  0.8721E-01  0.5794E-01  0.5791E-01  0.0000E+00  0.8597E-03  0.0000E+00  0.0000E+00  0.1158E-01  0.1163E-01  0.3177E-02  0.3121E-02  0.2544E+02  0.2538E+02  0.1184E+03  0.9911E+02  0.0000E+00  0.0000E+00  0.0000E+00  0.0000E+00  0.0000E+00  0.0000E+00  0.0000E+00  0.0000E+00  0.0000E+00  0.0000E+00  0.0000E+00  0.0000E+00  0.0000E+00  0.0000E+00  0.0000E+00  0.0000E+00  0.0000E+00  0.4603E+00  0.9884E-01  0.0000E+00  0.0000E+00
REACH    4        0     3  0.1895E+00  0.9473E-02  0.9467E-02  0.6146E-05  0.0000E+00  0.1497E+01  0.1497E+01  0.9654E+01  0.1698E+01  0.1696E+01  0.3703E+00  0.3699E+00  0.1201E+00  0.1200E+00  0.0000E+00  0.2807E-02  0.0000E+00  0.0000E+00  0.1303E-01  0.1336E-01  0.2393E-01  0.2321E-01  0.2592E+03  0.2580E+03  0.1660E+03  0.8710E+02  0.0000E+00  0.0000E+00  0.0000E+00  0.0000E+00  0.0000E+00  0.0000E+00  0.0000E+00  0.0000E+00  0.0000E+00  0.0000E+00  0.0000E+00  0.0000E+00  0.0000E+00  0.0000E+00  0.0000E+00  0.0000E+00  0.0000E+00  0.1819E+01  0.3833E+00  0.0000E+00  0.0000E+00
REACH    5        0     3  0.2556E+00  0.1229E-01  0.1228E-01  0.6145E-05  0.0000E+00  0.1881E+01  0.1881E+01  0.1059E+02  0.1497E+01  0.1496E+01  0.3286E+00  0.3284E+00  0.1473E+00  0.1472E+00  0.0000E+00  0.2717E-02  0.0000E+00  0.0000E+00  0.2255E-01  0.2277E-01  0.2398E-01  0.2351E-01  0.3077E+03  0.3069E+03  0.2325E+03  0.1078E+03  0.0000E+00  0.0000E+00  0.0000E+00  0.0000E+00  0.0000E+00  0.0000E+00  0.0000E+00  0.0000E+00  0.0000E+00  0.0000E+00  0.0000E+00  0.0000E+00  0.0000E+00  0.0000E+00  0.0000E+00  0.0000E+00  0.0000E+00  0.1646E+01  0.3512E+00  0.0000E+00  0.0000E+00
REACH    6        0     3  0.5361E+00  0.2536E-01  0.2534E-01  0.1265E-04  0.0000E+00  0.2209E+01  0.1179E+02  0.9270E+02  0.2400E+01  0.2398E+01  0.5251E+00  0.5244E+00  0.2803E+00  0.2801E+00  0.3577E-02  0.8911E-02  0.0000E+00  0.2368E-04  0.5249E-01  0.5318E-01  0.3151E-01  0.3070E-01  0.3625E+03  0.3605E+03  0.3471E+03  0.2746E+03  0.0000E+00  0.0000E+00  0.0000E+00  0.0000E+00  0.0000E+00  0.0000E+00  0.0000E+00  0.0000E+00  0.0000E+00  0.0000E+00  0.0000E+00  0.0000E+00  0.0000E+00  0.0000E+00  0.0000E+00  0.0000E+00  0.0000E+00  0.2687E+01  0.5776E+00  0.0000E+00  0.0000E+00
REACH    7        0     3  0.8570E+00  0.4117E-01  0.4116E-01  0.8581E-05  0.0000E+00  0.1741E+02  0.3179E+02  0.1165E+03  0.1130E+02  0.1130E+02  0.2606E+01  0.2605E+01  0.7674E+00  0.7670E+00  0.1172E-01  0.1691E-01  0.2368E-04  0.5497E-04  0.7702E-01  0.7793E-01  0.2130E+00  0.2113E+00  0.1452E+04  0.1450E+04  0.4770E+03  0.3621E+03  0.0000E+00  0.0000E+00  0.0000E+00  0.0000E+00  0.0000E+00  0.0000E+00  0.0000E+00  0.0000E+00  0.0000E+00  0.0000E+00  0.0000E+00  0.0000E+00  0.0000E+00  0.0000E+00  0.0000E+00  0.0000E+00  0.0000E+00  0.1208E+02  0.2683E+01  0.0000E+00  0.0000E+00
REACH    8        0     3  0.1082E+01  0.5162E-01  0.5160E-01  0.1583E-04  0.0000E+00  0.3661E+02  0.2434E+02  0.1024E+03  0.1779E+02  0.1778E+02  0.4061E+01  0.4057E+01  0.9827E+00  0.9820E+00  0.1716E-01  0.3103E-01  0.5497E-04  0.1119E-03  0.1054E+00  0.1089E+00  0.4035E+00  0.3956E+00  0.2575E+04  0.2564E+04  0.5381E+03  0.3697E+03  0.0000E+00  0.0000E+00  0.0000E+00  0.0000E+00  0.0000E+00  0.0000E+00  0.0000E+00  0.0000E+00  0.0000E+00  0.0000E+00  0.0000E+00  0.0000E+00  0.0000E+00  0.0000E+00  0.0000E+00  0.0000E+00  0.0000E+00  0.1879E+02  0.4166E+01  0.0000E+00  0.0000E+00
REACH    9        0     3  0.1363E+01  0.6484E-01  0.6484E-01  0.6374E-05  0.0000E+00  0.2595E+02  0.4706E+02  0.1144E+03  0.2042E+02  0.2041E+02  0.4668E+01  0.4667E+01  0.1229E+01  0.1229E+01  0.3573E-01  0.4023E-01  0.1119E-03  0.1465E-03  0.1448E+00  0.1458E+00  0.4332E+00  0.4311E+00  0.2861E+04  0.2858E+04  0.5233E+03  0.4858E+03  0.0000E+00  0.0000E+00  0.0000E+00  0.0000E+00  0.0000E+00  0.0000E+00  0.0000E+00  0.0000E+00  0.0000E+00  0.0000E+00  0.0000E+00  0.0000E+00  0.0000E+00  0.0000E+00  0.0000E+00  0.0000E+00  0.0000E+00  0.2168E+02  0.4813E+01  0.0000E+00  0.0000E+00
REACH    1        0     4  0.2442E+00  0.1687E-01  0.1686E-01  0.6075E-05  0.0000E+00  0.1397E+01  0.1397E+01  0.6482E+01  0.2155E+01  0.2154E+01  0.4967E+00  0.4964E+00  0.9191E+00  0.9186E+00  0.0000E+00  0.3467E-02  0.0000E+00  0.0000E+00  0.2997E-01  0.3035E-01  0.2424E-01  0.2364E-01  0.2457E+03  0.2449E+03  0.3275E+03  0.1748E+03  0.0000E+00  0.0000E+00  0.0000E+00  0.0000E+00  0.0000E+00  0.0000E+00  0.0000E+00  0.0000E+00  0.0000E+00  0.0000E+00  0.0000E+00  0.0000E+00  0.0000E+00  0.0000E+00  0.0000E+00  0.0000E+00  0.0000E+00  0.3076E+01  0.5267E+00  0.0000E+00  0.0000E+00
REACH    2        0     4  0.1348E+00  0.9321E-02  0.9321E-02  0.6682E-06  0.0000E+00  0.2059E+00  0.2059E+00  0.1648E+01  0.4754E+00  0.4753E+00  0.1033E+00  0.1032E+00  0.4189E+00  0.4188E+00  0.0000E+00  0.2815E-03  0.0000E+00  0.0000E+00  0.1703E-01  0.1706E-01  0.2678E-02  0.2658E-02  0.2909E+02  0.2905E+02  0.1806E+03  0.1529E+03  0.0000E+00  0.0000E+00  0.0000E+00  0.0000E+00  0.0000E+00  0.0000E+00  0.0000E+00  0.0000E+00  0.0000E+00  0.0000E+00  0.0000E+00  0.0000E+00  0.0000E+00  0.0000E+00  0.0000E+00  0.0000E+00  0.0000E+00  0.8944E+00  0.1203E+00  0.0000E+00  0.0000E+00
REACH    3        0     4  0.1273E+00  0.8800E-02  0.8798E-02  0.2168E-05  0.0000E+00  0.1443E+00  0.1443E+00  0.1231E+01  0.3672E+00  0.3671E+00  0.7971E-01  0.7967E-01  0.4834E+00  0.4833E+00  0.0000E+00  0.7918E-03  0.0000E+00  0.0000E+00  0.1718E-01  0.1721E-01  0.1816E-02  0.1792E-02  0.1949E+02  0.1946E+02  0.1743E+03  0.1532E+03  0.0000E+00  0.0000E+00  0.0000E+00  0.0000E+00  0.0000E+00  0.0000E+00  0.0000E+00  0.0000E+00  0.0000E+00  0.0000E+00  0.0000E+00  0.0000E+00  0.0000E+00  0.0000E+00  0.0000E+00  0.0000E+00  0.0000E+00  0.8511E+00  0.9689E-01  0.0000E+00  0.0000E+00
REACH    4        0     4  0.1895E+00  0.1309E-01  0.1308E-01  0.4459E-05  0.0000E+00  0.1335E+01  0.1335E+01  0.8427E+01  0.1406E+01  0.1406E+01  0.3054E+00  0.3053E+00  0.4739E+00  0.4736E+00  0.0000E+00  0.2376E-02  0.0000E+00  0.0000E+00  0.2388E-01  0.2407E-01  0.1385E-01  0.1354E-01  0.2199E+03  0.2193E+03  0.2309E+03  0.1220E+03  0.0000E+00  0.0000E+00  0.0000E+00  0.0000E+00  0.0000E+00  0.0000E+00  0.0000E+00  0.0000E+00  0.0000E+00  0.0000E+00  0.0000E+00  0.0000E+00  0.0000E+00  0.0000E+00  0.0000E+00  0.0000E+00  0.0000E+00  0.1882E+01  0.3293E+00  0.0000E+00  0.0000E+00
REACH    5        0     4  0.2556E+00  0.1731E-01  0.1730E-01  0.5153E-05  0.0000E+00  0.1659E+01  0.1659E+01  0.8306E+01  0.1122E+01  0.1122E+01  0.2448E+00  0.2447E+00  0.5094E+00  0.5090E+00  0.0000E+00  0.2574E-02  0.0000E+00  0.0000E+00  0.3906E-01  0.3927E-01  0.1188E-01  0.1166E-01  0.2702E+03  0.2696E+03  0.3303E+03  0.1622E+03  0.0000E+00  0.0000E+00  0.0000E+00  0.0000E+00  0.0000E+00  0.0000E+00  0.0000E+00  0.0000E+00  0.0000E+00  0.0000E+00  0.0000E+00  0.0000E+00  0.0000E+00  0.0000E+00  0.0000E+00  0.0000E+00  0.0000E+00  0.1634E+01  0.2840E+00  0.0000E+00  0.0000E+00
REACH    6        0     4  0.5361E+00  0.3663E-01  0.3662E-01  0.9440E-05  0.0000E+00  0.1964E+01  0.2440E+02  0.1083E+03  0.1927E+01  0.1926E+01  0.4197E+00  0.4194E+00  0.1669E+01  0.1668E+01  0.3365E-02  0.8350E-02  0.0000E+00  0.2490E-04  0.8062E-01  0.8109E-01  0.1620E-01  0.1591E-01  0.3116E+03  0.3105E+03  0.5255E+03  0.4444E+03  0.0000E+00  0.0000E+00  0.0000E+00  0.0000E+00  0.0000E+00  0.0000E+00  0.0000E+00  0.0000E+00  0.0000E+00  0.0000E+00  0.0000E+00  0.0000E+00  0.0000E+00  0.0000E+00  0.0000E+00  0.0000E+00  0.0000E+00  0.3603E+01  0.5005E+00  0.0000E+00  0.0000E+00
REACH    7        0     4  0.8570E+00  0.5872E-01  0.5871E-01  0.7193E-05  0.0000E+00  0.2930E+02  0.4771E+02  0.1282E+03  0.8957E+01  0.8956E+01  0.2055E+01  0.2054E+01  0.2736E+01  0.2736E+01  0.1073E-01  0.1552E-01  0.2490E-04  0.6224E-04  0.1226E+00  0.1233E+00  0.1251E+00  0.1241E+00  0.1207E+04  0.1205E+04  0.7326E+03  0.5235E+03  0.0000E+00  0.0000E+00  0.0000E+00  0.0000E+00  0.0000E+00  0.0000E+00  0.0000E+00  0.0000E+00  0.0000E+00  0.0000E+00  0.0000E+00  0.0000E+00  0.0000E+00  0.0000E+00  0.0000E+00  0.0000E+00  0.0000E+00  0.1171E+02  0.2178E+01  0.0000E+00  0.0000E+00
REACH    8        0     4  0.1082E+01  0.7414E-01  0.7413E-01  0.1181E-04  0.0000E+00  0.5183E+02  0.5385E+02  0.1220E+03  0.1355E+02  0.1354E+02  0.3086E+01  0.3084E+01  0.3940E+01  0.3939E+01  0.1580E-01  0.2487E-01  0.6224E-04  0.1226E-03  0.1593E+00  0.1611E+00  0.2429E+00  0.2399E+00  0.2192E+04  0.2186E+04  0.7957E+03  0.5771E+03  0.0000E+00  0.0000E+00  0.0000E+00  0.0000E+00  0.0000E+00  0.0000E+00  0.0000E+00  0.0000E+00  0.0000E+00  0.0000E+00  0.0000E+00  0.0000E+00  0.0000E+00  0.0000E+00  0.0000E+00  0.0000E+00  0.0000E+00  0.1751E+02  0.3245E+01  0.0000E+00  0.0000E+00
REACH    9        0     4  0.1363E+01  0.9348E-01  0.9348E-01  0.5356E-05  0.0000E+00  0.5526E+02  0.6854E+02  0.1234E+03  0.1576E+02  0.1576E+02  0.3595E+01  0.3594E+01  0.5012E+01  0.5012E+01  0.2834E-01  0.3240E-01  0.1226E-03  0.1590E-03  0.2092E+00  0.2100E+00  0.2639E+00  0.2627E+00  0.2434E+04  0.2431E+04  0.8030E+03  0.7572E+03  0.0000E+00  0.0000E+00  0.0000E+00  0.0000E+00  0.0000E+00  0.0000E+00  0.0000E+00  0.0000E+00  0.0000E+00  0.0000E+00  0.0000E+00  0.0000E+00  0.0000E+00  0.0000E+00  0.0000E+00  0.0000E+00  0.0000E+00  0.2081E+02  0.3804E+01  0.0000E+00  0.0000E+00
REACH    1        0     5  0.2442E+00  0.3651E-01  0.3650E-01  0.7350E-05  0.0000E+00  0.8256E+01  0.8256E+01  0.1715E+02  0.1503E+02  0.1502E+02  0.3296E+01  0.3292E+01  0.1278E+02  0.1278E+02  0.0000E+00  0.1163E-01  0.0000E+00  0.0000E+00  0.1872E+00  0.1904E+00  0.2604E+00  0.2536E+00  0.1860E+04  0.1849E+04  0.5577E+03  0.3108E+03  0.0000E+00  0.0000E+00  0.0000E+00  0.0000E+00  0.0000E+00  0.0000E+00  0.0000E+00  0.0000E+00  0.0000E+00  0.0000E+00  0.0000E+00  0.0000E+00  0.0000E+00  0.0000E+00  0.0000E+00  0.0000E+00  0.0000E+00  0.2781E+02  0.3483E+01  0.0000E+00  0.0000E+00
REACH    2        0     5  0.1348E+00  0.2017E-01  0.2017E-01  0.5563E-06  0.0000E+00  0.2549E+01  0.2549E+01  0.9132E+01  0.6128E+01  0.6128E+01  0.1315E+01  0.1315E+01  0.6564E+01  0.6564E+01  0.0000E+00  0.6712E-03  0.0000E+00  0.0000E+00  0.1025E+00  0.1027E+00  0.1002E+00  0.9977E-01  0.6138E+03  0.6133E+03  0.3053E+03  0.1886E+03  0.0000E+00  0.0000E+00  0.0000E+00  0.0000E+00  0.0000E+00  0.0000E+00  0.0000E+00  0.0000E+00  0.0000E+00  0.0000E+00  0.0000E+00  0.0000E+00  0.0000E+00  0.0000E+00  0.0000E+00  0.0000E+00  0.0000E+00  0.1269E+02  0.1417E+01  0.0000E+00  0.0000E+00
REACH    3        0     5  0.1273E+00  0.1903E-01  0.1903E-01  0.2096E-05  0.0000E+00  0.1898E+01  0.1898E+01  0.7234E+01  0.5083E+01  0.5082E+01  0.1091E+01  0.1090E+01  0.6424E+01  0.6423E+01  0.0000E+00  0.1933E-02  0.0000E+00  0.0000E+00  0.1056E+00  0.1060E+00  0.8137E-01  0.8029E-01  0.4519E+03  0.4510E+03  0.2971E+03  0.1885E+03  0.0000E+00  0.0000E+00  0.0000E+00  0.0000E+00  0.0000E+00  0.0000E+00  0.0000E+00  0.0000E+00  0.0000E+00  0.0000E+00  0.0000E+00  0.0000E+00  0.0000E+00  0.0000E+00  0.0000E+00  0.0000E+00  0.0000E+00  0.1151E+02  0.1196E+01  0.0000E+00  0.0000E+00
REACH    4        0     5  0.1895E+00  0.2791E-01  0.2791E-01  0.5402E-05  0.0000E+00  0.6397E+01  0.6397E+01  0.2031E+02  0.9209E+01  0.9204E+01  0.1979E+01  0.1977E+01  0.5349E+01  0.5348E+01  0.0000E+00  0.5802E-02  0.0000E+00  0.0000E+00  0.1093E+00  0.1107E+00  0.1566E+00  0.1532E+00  0.1369E+04  0.1364E+04  0.4049E+03  0.2079E+03  0.0000E+00  0.0000E+00  0.0000E+00  0.0000E+00  0.0000E+00  0.0000E+00  0.0000E+00  0.0000E+00  0.0000E+00  0.0000E+00  0.0000E+00  0.0000E+00  0.0000E+00  0.0000E+00  0.0000E+00  0.0000E+00  0.0000E+00  0.1456E+02  0.2088E+01  0.0000E+00  0.0000E+00
REACH    5        0     5  0.2556E+00  0.3850E-01  0.3850E-01  0.5248E-05  0.0000E+00  0.7520E+01  0.7520E+01  0.1919E+02  0.1009E+02  0.1008E+02  0.2167E+01  0.2166E+01  0.1119E+02  0.1119E+02  0.0000E+00  0.5498E-02  0.0000E+00  0.0000E+00  0.2111E+00  0.2123E+00  0.1797E+00  0.1769E+00  0.1523E+04  0.1519E+04  0.5671E+03  0.2797E+03  0.0000E+00  0.0000E+00  0.0000E+00  0.0000E+00  0.0000E+00  0.0000E+00  0.0000E+00  0.0000E+00  0.0000E+00  0.0000E+00  0.0000E+00  0.0000E+00  0.0000E+00  0.0000E+00  0.0000E+00  0.0000E+00  0.0000E+00  0.2128E+02  0.2378E+01  0.0000E+00  0.0000E+00
REACH    6        0     5  0.5361E+00  0.8018E-01  0.8017E-01  0.1084E-04  0.0000E+00  0.1147E+02  0.4796E+02  0.1468E+03  0.2090E+02  0.2089E+02  0.4487E+01  0.4483E+01  0.2497E+02  0.2496E+02  0.7430E-02  0.2026E-01  0.0000E+00  0.1105E-04  0.4570E+00  0.4606E+00  0.3486E+00  0.3428E+00  0.2454E+04  0.2444E+04  0.8355E+03  0.6699E+03  0.0000E+00  0.0000E+00  0.0000E+00  0.0000E+00  0.0000E+00  0.0000E+00  0.0000E+00  0.0000E+00  0.0000E+00  0.0000E+00  0.0000E+00  0.0000E+00  0.0000E+00  0.0000E+00  0.0000E+00  0.0000E+00  0.0000E+00  0.4587E+02  0.4944E+01  0.0000E+00  0.0000E+00
REACH    7        0     5  0.8570E+00  0.1275E+00  0.1275E+00  0.7027E-05  0.0000E+00  0.6808E+02  0.9990E+02  0.1772E+03  0.5081E+02  0.5080E+02  0.1121E+02  0.1120E+02  0.3673E+02  0.3673E+02  0.2606E-01  0.3876E-01  0.1105E-04  0.2735E-04  0.6622E+00  0.6658E+00  0.9560E+00  0.9499E+00  0.6782E+04  0.6770E+04  0.1166E+04  0.9511E+03  0.0000E+00  0.0000E+00  0.0000E+00  0.0000E+00  0.0000E+00  0.0000E+00  0.0000E+00  0.0000E+00  0.0000E+00  0.0000E+00  0.0000E+00  0.0000E+00  0.0000E+00  0.0000E+00  0.0000E+00  0.0000E+00  0.0000E+00  0.8757E+02  0.1187E+02  0.0000E+00  0.0000E+00
REACH    8        0     5  0.1082E+01  0.1607E+00  0.1607E+00  0.1328E-04  0.0000E+00  0.1144E+03  0.1038E+03  0.1564E+03  0.6796E+02  0.6793E+02  0.1498E+02  0.1497E+02  0.4806E+02  0.4805E+02  0.3943E-01  0.6699E-01  0.2735E-04  0.5365E-04  0.8595E+00  0.8679E+00  0.1344E+01  0.1330E+01  0.1019E+05  0.1016E+05  0.1367E+04  0.1047E+04  0.0000E+00  0.0000E+00  0.0000E+00  0.0000E+00  0.0000E+00  0.0000E+00  0.0000E+00  0.0000E+00  0.0000E+00  0.0000E+00  0.0000E+00  0.0000E+00  0.0000E+00  0.0000E+00  0.0000E+00  0.0000E+00  0.0000E+00  0.1161E+03  0.1584E+02  0.0000E+00  0.0000E+00
REACH    9        0     5  0.1363E+01  0.2026E+00  0.2026E+00  0.5182E-05  0.0000E+00  0.1123E+03  0.1434E+03  0.1686E+03  0.8385E+02  0.8384E+02  0.1846E+02  0.1845E+02  0.6231E+02  0.6231E+02  0.7862E-01  0.9077E-01  0.5365E-04  0.7033E-04  0.1123E+01  0.1127E+01  0.1598E+01  0.1592E+01  0.1207E+05  0.1205E+05  0.1456E+04  0.1370E+04  0.0000E+00  0.0000E+00  0.0000E+00  0.0000E+00  0.0000E+00  0.0000E+00  0.0000E+00  0.0000E+00  0.0000E+00  0.0000E+00  0.0000E+00  0.0000E+00  0.0000E+00  0.0000E+00  0.0000E+00  0.0000E+00  0.0000E+00  0.1462E+03  0.1958E+02  0.0000E+00  0.0000E+00
REACH    1        0     6  0.2442E+00  0.4336E-02  0.4330E-02  0.5833E-05  0.0000E+00  0.3469E+00  0.3469E+00  0.5260E+01  0.6279E+00  0.6274E+00  0.1394E+00  0.1393E+00  0.1297E+01  0.1296E+01  0.0000E+00  0.2640E-02  0.0000E+00  0.0000E+00  0.3868E-02  0.4027E-02  0.4409E-02  0.4123E-02  0.4238E+02  0.4214E+02  0.8925E+02  0.6740E+02  0.0000E+00  0.0000E+00  0.0000E+00  0.0000E+00  0.0000E+00  0.0000E+00  0.0000E+00  0.0000E+00  0.0000E+00  0.0000E+00  0.0000E+00  0.0000E+00  0.0000E+00  0.0000E+00  0.0000E+00  0.0000E+00  0.0000E+00  0.1926E+01  0.1433E+00  0.0000E+00  0.0000E+00
REACH    2        0     6  0.1348E+00  0.2343E-02  0.2342E-02  0.4166E-06  0.0000E+00  0.9644E-01  0.9644E-01  0.2553E+01  0.2103E+00  0.2102E+00  0.4529E-01  0.4528E-01  0.6919E+00  0.6918E+00  0.0000E+00  0.1729E-03  0.0000E+00  0.0000E+00  0.2231E-02  0.2238E-02  0.8013E-03  0.7945E-03  0.9731E+01  0.9724E+01  0.4813E+02  0.4064E+02  0.0000E+00  0.0000E+00  0.0000E+00  0.0000E+00  0.0000E+00  0.0000E+00  0.0000E+00  0.0000E+00  0.0000E+00  0.0000E+00  0.0000E+00  0.0000E+00  0.0000E+00  0.0000E+00  0.0000E+00  0.0000E+00  0.0000E+00  0.9022E+00  0.4752E-01  0.0000E+00  0.0000E+00
REACH    3        0     6  0.1273E+00  0.2268E-02  0.2266E-02  0.1610E-05  0.0000E+00  0.7005E-01  0.7005E-01  0.2007E+01  0.1660E+00  0.1660E+00  0.3576E-01  0.3574E-01  0.6493E+00  0.6489E+00  0.0000E+00  0.6483E-03  0.0000E+00  0.0000E+00  0.1938E-02  0.1956E-02  0.6091E-03  0.5888E-03  0.7024E+01  0.7008E+01  0.4697E+02  0.4078E+02  0.0000E+00  0.0000E+00  0.0000E+00  0.0000E+00  0.0000E+00  0.0000E+00  0.0000E+00  0.0000E+00  0.0000E+00  0.0000E+00  0.0000E+00  0.0000E+00  0.0000E+00  0.0000E+00  0.0000E+00  0.0000E+00  0.0000E+00  0.8155E+00  0.3770E-01  0.0000E+00  0.0000E+00
REACH    4        0     6  0.1895E+00  0.3158E-02  0.3154E-02  0.4268E-05  0.0000E+00  0.3215E+00  0.3215E+00  0.6522E+01  0.3170E+00  0.3168E+00  0.6798E-01  0.6792E-01  0.1004E+01  0.1003E+01  0.0000E+00  0.1768E-02  0.0000E+00  0.0000E+00  0.3407E-02  0.3463E-02  0.1555E-02  0.1470E-02  0.3862E+02  0.3847E+02  0.6400E+02  0.4359E+02  0.0000E+00  0.0000E+00  0.0000E+00  0.0000E+00  0.0000E+00  0.0000E+00  0.0000E+00  0.0000E+00  0.0000E+00  0.0000E+00  0.0000E+00  0.0000E+00  0.0000E+00  0.0000E+00  0.0000E+00  0.0000E+00  0.0000E+00  0.1321E+01  0.7138E-01  0.0000E+00  0.0000E+00
REACH    5        0     6  0.2556E+00  0.4179E-02  0.4174E-02  0.5033E-05  0.0000E+00  0.4327E+00  0.4327E+00  0.7007E+01  0.3422E+00  0.3420E+00  0.7368E-01  0.7362E-01  0.1436E+01  0.1435E+01  0.0000E+00  0.2095E-02  0.0000E+00  0.0000E+00  0.5174E-02  0.5244E-02  0.1575E-02  0.1497E-02  0.5514E+02  0.5494E+02  0.8537E+02  0.5597E+02  0.0000E+00  0.0000E+00  0.0000E+00  0.0000E+00  0.0000E+00  0.0000E+00  0.0000E+00  0.0000E+00  0.0000E+00  0.0000E+00  0.0000E+00  0.0000E+00  0.0000E+00  0.0000E+00  0.0000E+00  0.0000E+00  0.0000E+00  0.1779E+01  0.7887E-01  0.0000E+00  0.0000E+00
REACH    6        0     6  0.5361E+00  0.9348E-02  0.9339E-02  0.9125E-05  0.0000E+00  0.5762E+00  0.3310E+01  0.7114E+02  0.6840E+00  0.6835E+00  0.1473E+00  0.1472E+00  0.2859E+01  0.2857E+01  0.2743E-02  0.6745E-02  0.0000E+00  0.1504E-04  0.9315E-02  0.9504E-02  0.2803E-02  0.2673E-02  0.6938E+02  0.6904E+02  0.1576E+03  0.1438E+03  0.0000E+00  0.0000E+00  0.0000E+00  0.0000E+00  0.0000E+00  0.0000E+00  0.0000E+00  0.0000E+00  0.0000E+00  0.0000E+00  0.0000E+00  0.0000E+00  0.0000E+00  0.0000E+00  0.0000E+00  0.0000E+00  0.0000E+00  0.3547E+01  0.1567E+00  0.0000E+00  0.0000E+00
REACH    7        0     6  0.8570E+00  0.1489E-01  0.1489E-01  0.7095E-05  0.0000E+00  0.4250E+01  0.6209E+01  0.8093E+02  0.2030E+01  0.2029E+01  0.4456E+00  0.4454E+00  0.4742E+01  0.4740E+01  0.8513E-02  0.1185E-01  0.1504E-04  0.3977E-04  0.1684E-01  0.1711E-01  0.1690E-01  0.1653E-01  0.1981E+03  0.1976E+03  0.2361E+03  0.2101E+03  0.0000E+00  0.0000E+00  0.0000E+00  0.0000E+00  0.0000E+00  0.0000E+00  0.0000E+00  0.0000E+00  0.0000E+00  0.0000E+00  0.0000E+00  0.0000E+00  0.0000E+00  0.0000E+00  0.0000E+00  0.0000E+00  0.0000E+00  0.6781E+01  0.4625E+00  0.0000E+00  0.0000E+00
REACH    8        0     6  0.1082E+01  0.1908E-01  0.1907E-01  0.1165E-04  0.0000E+00  0.7291E+01  0.7080E+01  0.7937E+02  0.2809E+01  0.2807E+01  0.6208E+00  0.6203E+00  0.5887E+01  0.5884E+01  0.1203E-01  0.1781E-01  0.3977E-04  0.7809E-04  0.2043E-01  0.2103E-01  0.3121E-01  0.3022E-01  0.4304E+03  0.4288E+03  0.2892E+03  0.2310E+03  0.0000E+00  0.0000E+00  0.0000E+00  0.0000E+00  0.0000E+00  0.0000E+00  0.0000E+00  0.0000E+00  0.0000E+00  0.0000E+00  0.0000E+00  0.0000E+00  0.0000E+00  0.0000E+00  0.0000E+00  0.0000E+00  0.0000E+00  0.8709E+01  0.6413E+00  0.0000E+00  0.0000E+00
REACH    9        0     6  0.1363E+01  0.2419E-01  0.2419E-01  0.5308E-05  0.0000E+00  0.7435E+01  0.9453E+01  0.8351E+02  0.3459E+01  0.3458E+01  0.7647E+00  0.7645E+00  0.7361E+01  0.7360E+01  0.2045E-01  0.2307E-01  0.7809E-04  0.9876E-04  0.2713E-01  0.2749E-01  0.3452E-01  0.3413E-01  0.4718E+03  0.4711E+03  0.3153E+03  0.3052E+03  0.0000E+00  0.0000E+00  0.0000E+00  0.0000E+00  0.0000E+00  0.0000E+00  0.0000E+00  0.0000E+00  0.0000E+00  0.0000E+00  0.0000E+00  0.0000E+00  0.0000E+00  0.0000E+00  0.0000E+00  0.0000E+00  0.0000E+00  0.1084E+02  0.7920E+00  0.0000E+00  0.0000E+00
REACH    1        0     7  0.2442E+00  0.1517E-01  0.1516E-01  0.7559E-05  0.0000E+00  0.1322E+02  0.1322E+02  0.3822E+02  0.2778E+02  0.2775E+02  0.6078E+01  0.6070E+01  0.7301E+01  0.7297E+01  0.0000E+00  0.1919E-01  0.0000E+00  0.0000E+00  0.9562E-01  0.1017E+00  0.4030E+00  0.3900E+00  0.2887E+04  0.2869E+04  0.2309E+03  0.1234E+03  0.0000E+00  0.0000E+00  0.0000E+00  0.0000E+00  0.0000E+00  0.0000E+00  0.0000E+00  0.0000E+00  0.0000E+00  0.0000E+00  0.0000E+00  0.0000E+00  0.0000E+00  0.0000E+00  0.0000E+00  0.0000E+00  0.0000E+00  0.3507E+02  0.6171E+01  0.0000E+00  0.0000E+00
REACH    2        0     7  0.1348E+00  0.8396E-02  0.8395E-02  0.5590E-06  0.0000E+00  0.5776E+01  0.5776E+01  0.2916E+02  0.1320E+02  0.1320E+02  0.2852E+01  0.2852E+01  0.3867E+01  0.3867E+01  0.0000E+00  0.1290E-02  0.0000E+00  0.0000E+00  0.4578E-01  0.4618E-01  0.1836E+00  0.1827E+00  0.1308E+04  0.1307E+04  0.1261E+03  0.7169E+02  0.0000E+00  0.0000E+00  0.0000E+00  0.0000E+00  0.0000E+00  0.0000E+00  0.0000E+00  0.0000E+00  0.0000E+00  0.0000E+00  0.0000E+00  0.0000E+00  0.0000E+00  0.0000E+00  0.0000E+00  0.0000E+00  0.0000E+00  0.1707E+02  0.2898E+01  0.0000E+00  0.0000E+00
REACH    3        0     7  0.1273E+00  0.7915E-02  0.7913E-02  0.2152E-05  0.0000E+00  0.4333E+01  0.4333E+01  0.2341E+02  0.1106E+02  0.1105E+02  0.2387E+01  0.2386E+01  0.3626E+01  0.3625E+01  0.0000E+00  0.2701E-02  0.0000E+00  0.0000E+00  0.4433E-01  0.4507E-01  0.1489E+00  0.1469E+00  0.9682E+03  0.9664E+03  0.1211E+03  0.6959E+02  0.0000E+00  0.0000E+00  0.0000E+00  0.0000E+00  0.0000E+00  0.0000E+00  0.0000E+00  0.0000E+00  0.0000E+00  0.0000E+00  0.0000E+00  0.0000E+00  0.0000E+00  0.0000E+00  0.0000E+00  0.0000E+00  0.0000E+00  0.1468E+02  0.2431E+01  0.0000E+00  0.0000E+00
REACH    4        0     7  0.1895E+00  0.1193E-01  0.1193E-01  0.5638E-05  0.0000E+00  0.9405E+01  0.9405E+01  0.3502E+02  0.1661E+02  0.1660E+02  0.3578E+01  0.3574E+01  0.6322E+01  0.6318E+01  0.0000E+00  0.9624E-02  0.0000E+00  0.0000E+00  0.6927E-01  0.7206E-01  0.2496E+00  0.2427E+00  0.2066E+04  0.2056E+04  0.1691E+03  0.8826E+02  0.0000E+00  0.0000E+00  0.0000E+00  0.0000E+00  0.0000E+00  0.0000E+00  0.0000E+00  0.0000E+00  0.0000E+00  0.0000E+00  0.0000E+00  0.0000E+00  0.0000E+00  0.0000E+00  0.0000E+00  0.0000E+00  0.0000E+00  0.2293E+02  0.3646E+01  0.0000E+00  0.0000E+00
REACH    5        0     7  0.2556E+00  0.1578E-01  0.1578E-01  0.5683E-05  0.0000E+00  0.1023E+02  0.1023E+02  0.2973E+02  0.2044E+02  0.2043E+02  0.4411E+01  0.4409E+01  0.7385E+01  0.7382E+01  0.0000E+00  0.6231E-02  0.0000E+00  0.0000E+00  0.9433E-01  0.9590E-01  0.3064E+00  0.3025E+00  0.2174E+04  0.2169E+04  0.2255E+03  0.1135E+03  0.0000E+00  0.0000E+00  0.0000E+00  0.0000E+00  0.0000E+00  0.0000E+00  0.0000E+00  0.0000E+00  0.0000E+00  0.0000E+00  0.0000E+00  0.0000E+00  0.0000E+00  0.0000E+00  0.0000E+00  0.0000E+00  0.0000E+00  0.2782E+02  0.4505E+01  0.0000E+00  0.0000E+00
REACH    6        0     7  0.5361E+00  0.3322E-01  0.3321E-01  0.1158E-04  0.0000E+00  0.1918E+02  0.1549E+02  0.1058E+03  0.4374E+02  0.4371E+02  0.9441E+01  0.9431E+01  0.1538E+02  0.1537E+02  0.8932E-02  0.2531E-01  0.0000E+00  0.4766E-05  0.1986E+00  0.2068E+00  0.6107E+00  0.5981E+00  0.4157E+04  0.4136E+04  0.3332E+03  0.2657E+03  0.0000E+00  0.0000E+00  0.0000E+00  0.0000E+00  0.0000E+00  0.0000E+00  0.0000E+00  0.0000E+00  0.0000E+00  0.0000E+00  0.0000E+00  0.0000E+00  0.0000E+00  0.0000E+00  0.0000E+00  0.0000E+00  0.0000E+00  0.5911E+02  0.9637E+01  0.0000E+00  0.0000E+00
REACH    7        0     7  0.8570E+00  0.5333E-01  0.5332E-01  0.7792E-05  0.0000E+00  0.3747E+02  0.4675E+02  0.1380E+03  0.8361E+02  0.8359E+02  0.1822E+02  0.1821E+02  0.2682E+02  0.2682E+02  0.3493E-01  0.4877E-01  0.4766E-05  0.1142E-04  0.3956E+00  0.3997E+00  0.1286E+01  0.1280E+01  0.8823E+04  0.8811E+04  0.4745E+03  0.4025E+03  0.0000E+00  0.0000E+00  0.0000E+00  0.0000E+00  0.0000E+00  0.0000E+00  0.0000E+00  0.0000E+00  0.0000E+00  0.0000E+00  0.0000E+00  0.0000E+00  0.0000E+00  0.0000E+00  0.0000E+00  0.0000E+00  0.0000E+00  0.1105E+03  0.1861E+02  0.0000E+00  0.0000E+00
REACH    8        0     7  0.1082E+01  0.6719E-01  0.6718E-01  0.1288E-04  0.0000E+00  0.6137E+02  0.4109E+02  0.1169E+03  0.1058E+03  0.1057E+03  0.2311E+02  0.2309E+02  0.3349E+02  0.3348E+02  0.5006E-01  0.9052E-01  0.1142E-04  0.3076E-04  0.4936E+00  0.5068E+00  0.1625E+01  0.1607E+01  0.1201E+05  0.1197E+05  0.5641E+03  0.4522E+03  0.0000E+00  0.0000E+00  0.0000E+00  0.0000E+00  0.0000E+00  0.0000E+00  0.0000E+00  0.0000E+00  0.0000E+00  0.0000E+00  0.0000E+00  0.0000E+00  0.0000E+00  0.0000E+00  0.0000E+00  0.0000E+00  0.0000E+00  0.1393E+03  0.2360E+02  0.0000E+00  0.0000E+00
REACH    9        0     7  0.1363E+01  0.8463E-01  0.8462E-01  0.5837E-05  0.0000E+00  0.5487E+02  0.5264E+02  0.1179E+03  0.1354E+03  0.1354E+03  0.2957E+02  0.2956E+02  0.4172E+02  0.4172E+02  0.1097E+00  0.1289E+00  0.3076E-04  0.3921E-04  0.6340E+00  0.6403E+00  0.2022E+01  0.2014E+01  0.1497E+05  0.1495E+05  0.6142E+03  0.5873E+03  0.0000E+00  0.0000E+00  0.0000E+00  0.0000E+00  0.0000E+00  0.0000E+00  0.0000E+00  0.0000E+00  0.0000E+00  0.0000E+00  0.0000E+00  0.0000E+00  0.0000E+00  0.0000E+00  0.0000E+00  0.0000E+00  0.0000E+00  0.1772E+03  0.3020E+02  0.0000E+00  0.0000E+00
REACH    1        0     8  0.2442E+00  0.1793E-01  0.1792E-01  0.7503E-05  0.0000E+00  0.1857E+02  0.1857E+02  0.5978E+02  0.4296E+02  0.4293E+02  0.9399E+01  0.9388E+01  0.8554E+01  0.8550E+01  0.0000E+00  0.2436E-01  0.0000E+00  0.0000E+00  0.9972E-01  0.1077E+00  0.5898E+00  0.5731E+00  0.4144E+04  0.4122E+04  0.2836E+03  0.1128E+03  0.0000E+00  0.0000E+00  0.0000E+00  0.0000E+00  0.0000E+00  0.0000E+00  0.0000E+00  0.0000E+00  0.0000E+00  0.0000E+00  0.0000E+00  0.0000E+00  0.0000E+00  0.0000E+00  0.0000E+00  0.0000E+00  0.0000E+00  0.5150E+02  0.9496E+01  0.0000E+00  0.0000E+00
REACH    2        0     8  0.1348E+00  0.9931E-02  0.9931E-02  0.6403E-06  0.0000E+00  0.9073E+01  0.9073E+01  0.5081E+02  0.2202E+02  0.2202E+02  0.4771E+01  0.4770E+01  0.4498E+01  0.4498E+01  0.0000E+00  0.1670E-02  0.0000E+00  0.0000E+00  0.4689E-01  0.4743E-01  0.3019E+00  0.3006E+00  0.2059E+04  0.2057E+04  0.1547E+03  0.6752E+02  0.0000E+00  0.0000E+00  0.0000E+00  0.0000E+00  0.0000E+00  0.0000E+00  0.0000E+00  0.0000E+00  0.0000E+00  0.0000E+00  0.0000E+00  0.0000E+00  0.0000E+00  0.0000E+00  0.0000E+00  0.0000E+00  0.0000E+00  0.2652E+02  0.4818E+01  0.0000E+00  0.0000E+00
REACH    3        0     8  0.1273E+00  0.9342E-02  0.9339E-02  0.2140E-05  0.0000E+00  0.6811E+01  0.6811E+01  0.4061E+02  0.1847E+02  0.1846E+02  0.3998E+01  0.3996E+01  0.4211E+01  0.4210E+01  0.0000E+00  0.3990E-02  0.0000E+00  0.0000E+00  0.4433E-01  0.4553E-01  0.2467E+00  0.2435E+00  0.1528E+04  0.1525E+04  0.1486E+03  0.6965E+02  0.0000E+00  0.0000E+00  0.0000E+00  0.0000E+00  0.0000E+00  0.0000E+00  0.0000E+00  0.0000E+00  0.0000E+00  0.0000E+00  0.0000E+00  0.0000E+00  0.0000E+00  0.0000E+00  0.0000E+00  0.0000E+00  0.0000E+00  0.2268E+02  0.4041E+01  0.0000E+00  0.0000E+00
REACH    4        0     8  0.1895E+00  0.1408E-01  0.1408E-01  0.5585E-05  0.0000E+00  0.1297E+02  0.1297E+02  0.5400E+02  0.2624E+02  0.2623E+02  0.5674E+01  0.5668E+01  0.6770E+01  0.6766E+01  0.0000E+00  0.1380E-01  0.0000E+00  0.0000E+00  0.7683E-01  0.8115E-01  0.3829E+00  0.3723E+00  0.2907E+04  0.2893E+04  0.2062E+03  0.7911E+02  0.0000E+00  0.0000E+00  0.0000E+00  0.0000E+00  0.0000E+00  0.0000E+00  0.0000E+00  0.0000E+00  0.0000E+00  0.0000E+00  0.0000E+00  0.0000E+00  0.0000E+00  0.0000E+00  0.0000E+00  0.0000E+00  0.0000E+00  0.3301E+02  0.5750E+01  0.0000E+00  0.0000E+00
REACH    5        0     8  0.2556E+00  0.1890E-01  0.1890E-01  0.6456E-05  0.0000E+00  0.1378E+02  0.1378E+02  0.4446E+02  0.3465E+02  0.3463E+02  0.7495E+01  0.7488E+01  0.8584E+01  0.8580E+01  0.0000E+00  0.1591E-01  0.0000E+00  0.0000E+00  0.1006E+00  0.1057E+00  0.4939E+00  0.4827E+00  0.3051E+04  0.3038E+04  0.2794E+03  0.1087E+03  0.0000E+00  0.0000E+00  0.0000E+00  0.0000E+00  0.0000E+00  0.0000E+00  0.0000E+00  0.0000E+00  0.0000E+00  0.0000E+00  0.0000E+00  0.0000E+00  0.0000E+00  0.0000E+00  0.0000E+00  0.0000E+00  0.0000E+00  0.4323E+02  0.7594E+01  0.0000E+00  0.0000E+00
REACH    6        0     8  0.5361E+00  0.3938E-01  0.3937E-01  0.1152E-04  0.0000E+00  0.2781E+02  0.2217E+02  0.1128E+03  0.7335E+02  0.7330E+02  0.1587E+02  0.1585E+02  0.1778E+02  0.1778E+02  0.1990E-01  0.5821E-01  0.0000E+00  0.1127E-04  0.2079E+00  0.2209E+00  0.9908E+00  0.9709E+00  0.6171E+04  0.6141E+04  0.3610E+03  0.2594E+03  0.0000E+00  0.0000E+00  0.0000E+00  0.0000E+00  0.0000E+00  0.0000E+00  0.0000E+00  0.0000E+00  0.0000E+00  0.0000E+00  0.0000E+00  0.0000E+00  0.0000E+00  0.0000E+00  0.0000E+00  0.0000E+00  0.0000E+00  0.9113E+02  0.1607E+02  0.0000E+00  0.0000E+00
REACH    7        0     8  0.8570E+00  0.6312E-01  0.6311E-01  0.8773E-05  0.0000E+00  0.4768E+02  0.4337E+02  0.1299E+03  0.1252E+03  0.1252E+03  0.2733E+02  0.2732E+02  0.3060E+02  0.3060E+02  0.7200E-01  0.1001E+00  0.1127E-04  0.2637E-04  0.4397E+00  0.4491E+00  0.1760E+01  0.1746E+01  0.1176E+05  0.1173E+05  0.4863E+03  0.3743E+03  0.0000E+00  0.0000E+00  0.0000E+00  0.0000E+00  0.0000E+00  0.0000E+00  0.0000E+00  0.0000E+00  0.0000E+00  0.0000E+00  0.0000E+00  0.0000E+00  0.0000E+00  0.0000E+00  0.0000E+00  0.0000E+00  0.0000E+00  0.1559E+03  0.2777E+02  0.0000E+00  0.0000E+00
REACH    8        0     8  0.1082E+01  0.7950E-01  0.7948E-01  0.1435E-04  0.0000E+00  0.5946E+02  0.4835E+02  0.1225E+03  0.1573E+03  0.1572E+03  0.3436E+02  0.3434E+02  0.3851E+02  0.3850E+02  0.1017E+00  0.1585E+00  0.2637E-04  0.5654E-04  0.5456E+00  0.5648E+00  0.2189E+01  0.2165E+01  0.1538E+05  0.1533E+05  0.5542E+03  0.4402E+03  0.0000E+00  0.0000E+00  0.0000E+00  0.0000E+00  0.0000E+00  0.0000E+00  0.0000E+00  0.0000E+00  0.0000E+00  0.0000E+00  0.0000E+00  0.0000E+00  0.0000E+00  0.0000E+00  0.0000E+00  0.0000E+00  0.0000E+00  0.1958E+03  0.3491E+02  0.0000E+00  0.0000E+00
REACH    9        0     8  0.1363E+01  0.1001E+00  0.1001E+00  0.6477E-05  0.0000E+00  0.6779E+02  0.6366E+02  0.1301E+03  0.2032E+03  0.2032E+03  0.4440E+02  0.4438E+02  0.4809E+02  0.4809E+02  0.1829E+00  0.2101E+00  0.5654E-04  0.7422E-04  0.6990E+00  0.7082E+00  0.2778E+01  0.2767E+01  0.1964E+05  0.1961E+05  0.5994E+03  0.5672E+03  0.0000E+00  0.0000E+00  0.0000E+00  0.0000E+00  0.0000E+00  0.0000E+00  0.0000E+00  0.0000E+00  0.0000E+00  0.0000E+00  0.0000E+00  0.0000E+00  0.0000E+00  0.0000E+00  0.0000E+00  0.0000E+00  0.0000E+00  0.2515E+03  0.4509E+02  0.0000E+00  0.0000E+00
REACH    1        0     9  0.2442E+00  0.1011E-01  0.1010E-01  0.7545E-05  0.0000E+00  0.1865E+02  0.1865E+02  0.9069E+02  0.3632E+02  0.3630E+02  0.7943E+01  0.7936E+01  0.2894E+01  0.2893E+01  0.0000E+00  0.1574E-01  0.0000E+00  0.0000E+00  0.4753E-01  0.5248E-01  0.3765E+00  0.3675E+00  0.3465E+04  0.3452E+04  0.1570E+03  0.6867E+02  0.0000E+00  0.0000E+00  0.0000E+00  0.0000E+00  0.0000E+00  0.0000E+00  0.0000E+00  0.0000E+00  0.0000E+00  0.0000E+00  0.0000E+00  0.0000E+00  0.0000E+00  0.0000E+00  0.0000E+00  0.0000E+00  0.0000E+00  0.3921E+02  0.7989E+01  0.0000E+00  0.0000E+00
REACH    2        0     9  0.1348E+00  0.5573E-02  0.5573E-02  0.5479E-06  0.0000E+00  0.9359E+01  0.9359E+01  0.8098E+02  0.1937E+02  0.1937E+02  0.4201E+01  0.4200E+01  0.1489E+01  0.1489E+01  0.0000E+00  0.1878E-02  0.0000E+00  0.0000E+00  0.2278E-01  0.2340E-01  0.2011E+00  0.1999E+00  0.1776E+04  0.1775E+04  0.8447E+02  0.3691E+02  0.0000E+00  0.0000E+00  0.0000E+00  0.0000E+00  0.0000E+00  0.0000E+00  0.0000E+00  0.0000E+00  0.0000E+00  0.0000E+00  0.0000E+00  0.0000E+00  0.0000E+00  0.0000E+00  0.0000E+00  0.0000E+00  0.0000E+00  0.2086E+02  0.4223E+01  0.0000E+00  0.0000E+00
REACH    3        0     9  0.1273E+00  0.5278E-02  0.5276E-02  0.2117E-05  0.0000E+00  0.6971E+01  0.6971E+01  0.6477E+02  0.1658E+02  0.1657E+02  0.3592E+01  0.3590E+01  0.1434E+01  0.1433E+01  0.0000E+00  0.2964E-02  0.0000E+00  0.0000E+00  0.2135E-01  0.2220E-01  0.1663E+00  0.1643E+00  0.1340E+04  0.1338E+04  0.8229E+02  0.3647E+02  0.0000E+00  0.0000E+00  0.0000E+00  0.0000E+00  0.0000E+00  0.0000E+00  0.0000E+00  0.0000E+00  0.0000E+00  0.0000E+00  0.0000E+00  0.0000E+00  0.0000E+00  0.0000E+00  0.0000E+00  0.0000E+00  0.0000E+00  0.1801E+02  0.3613E+01  0.0000E+00  0.0000E+00
REACH    4        0     9  0.1895E+00  0.7894E-02  0.7888E-02  0.5552E-05  0.0000E+00  0.1333E+02  0.1333E+02  0.7994E+02  0.2243E+02  0.2241E+02  0.4854E+01  0.4851E+01  0.2195E+01  0.2194E+01  0.0000E+00  0.7970E-02  0.0000E+00  0.0000E+00  0.3891E-01  0.4122E-01  0.2569E+00  0.2514E+00  0.2455E+04  0.2448E+04  0.1095E+03  0.4657E+02  0.0000E+00  0.0000E+00  0.0000E+00  0.0000E+00  0.0000E+00  0.0000E+00  0.0000E+00  0.0000E+00  0.0000E+00  0.0000E+00  0.0000E+00  0.0000E+00  0.0000E+00  0.0000E+00  0.0000E+00  0.0000E+00  0.0000E+00  0.2462E+02  0.4892E+01  0.0000E+00  0.0000E+00
REACH    5        0     9  0.2556E+00  0.1043E-01  0.1042E-01  0.5770E-05  0.0000E+00  0.1358E+02  0.1358E+02  0.6235E+02  0.3125E+02  0.3125E+02  0.6766E+01  0.6763E+01  0.2869E+01  0.2868E+01  0.0000E+00  0.8775E-02  0.0000E+00  0.0000E+00  0.4869E-01  0.5125E-01  0.3421E+00  0.3360E+00  0.2643E+04  0.2637E+04  0.1500E+03  0.6218E+02  0.0000E+00  0.0000E+00  0.0000E+00  0.0000E+00  0.0000E+00  0.0000E+00  0.0000E+00  0.0000E+00  0.0000E+00  0.0000E+00  0.0000E+00  0.0000E+00  0.0000E+00  0.0000E+00  0.0000E+00  0.0000E+00  0.0000E+00  0.3412E+02  0.6814E+01  0.0000E+00  0.0000E+00
REACH    6        0     9  0.5361E+00  0.2210E-01  0.2209E-01  0.1039E-04  0.0000E+00  0.2790E+02  0.1487E+02  0.8409E+02  0.6577E+02  0.6574E+02  0.1424E+02  0.1423E+02  0.6066E+01  0.6065E+01  0.1174E-01  0.3374E-01  0.0000E+00  0.2154E-04  0.1006E+00  0.1079E+00  0.6751E+00  0.6642E+00  0.5373E+04  0.5357E+04  0.2018E+03  0.1455E+03  0.0000E+00  0.0000E+00  0.0000E+00  0.0000E+00  0.0000E+00  0.0000E+00  0.0000E+00  0.0000E+00  0.0000E+00  0.0000E+00  0.0000E+00  0.0000E+00  0.0000E+00  0.0000E+00  0.0000E+00  0.0000E+00  0.0000E+00  0.7184E+02  0.1434E+02  0.0000E+00  0.0000E+00
REACH    7        0     9  0.8570E+00  0.3546E-01  0.3545E-01  0.8036E-05  0.0000E+00  0.3971E+02  0.2751E+02  0.9608E+02  0.1080E+03  0.1080E+03  0.2358E+02  0.2357E+02  0.1031E+02  0.1031E+02  0.4171E-01  0.6043E-01  0.2154E-04  0.5853E-04  0.2155E+00  0.2215E+00  0.1169E+01  0.1161E+01  0.9976E+04  0.9962E+04  0.2739E+03  0.2266E+03  0.0000E+00  0.0000E+00  0.0000E+00  0.0000E+00  0.0000E+00  0.0000E+00  0.0000E+00  0.0000E+00  0.0000E+00  0.0000E+00  0.0000E+00  0.0000E+00  0.0000E+00  0.0000E+00  0.0000E+00  0.0000E+00  0.0000E+00  0.1183E+03  0.2379E+02  0.0000E+00  0.0000E+00
REACH    8        0     9  0.1082E+01  0.4479E-01  0.4478E-01  0.1322E-04  0.0000E+00  0.4262E+02  0.3024E+02  0.8956E+02  0.1345E+03  0.1344E+03  0.2938E+02  0.2937E+02  0.1308E+02  0.1308E+02  0.6231E-01  0.9888E-01  0.5853E-04  0.1139E-03  0.2674E+00  0.2793E+00  0.1432E+01  0.1417E+01  0.1293E+05  0.1290E+05  0.3283E+03  0.2725E+03  0.0000E+00  0.0000E+00  0.0000E+00  0.0000E+00  0.0000E+00  0.0000E+00  0.0000E+00  0.0000E+00  0.0000E+00  0.0000E+00  0.0000E+00  0.0000E+00  0.0000E+00  0.0000E+00  0.0000E+00  0.0000E+00  0.0000E+00  0.1476E+03  0.2965E+02  0.0000E+00  0.0000E+00
REACH    9        0     9  0.1363E+01  0.5642E-01  0.5642E-01  0.6000E-05  0.0000E+00  0.4977E+02  0.3898E+02  0.9514E+02  0.1735E+03  0.1734E+03  0.3789E+02  0.3788E+02  0.1636E+02  0.1636E+02  0.1146E+00  0.1322E+00  0.1139E-03  0.1464E-03  0.3441E+00  0.3499E+00  0.1812E+01  0.1805E+01  0.1651E+05  0.1650E+05  0.3676E+03  0.3510E+03  0.0000E+00  0.0000E+00  0.0000E+00  0.0000E+00  0.0000E+00  0.0000E+00  0.0000E+00  0.0000E+00  0.0000E+00  0.0000E+00  0.0000E+00  0.0000E+00  0.0000E+00  0.0000E+00  0.0000E+00  0.0000E+00  0.0000E+00  0.1899E+03  0.3823E+02  0.0000E+00  0.0000E+00
REACH    1        0    10  0.2442E+00  0.1040E-01  0.1039E-01  0.6260E-05  0.0000E+00  0.1594E+02  0.1594E+02  0.8747E+02  0.4445E+02  0.4442E+02  0.9725E+01  0.9717E+01  0.3843E+01  0.3841E+01  0.0000E+00  0.1841E-01  0.0000E+00  0.0000E+00  0.4966E-01  0.5554E-01  0.3671E+00  0.3582E+00  0.2619E+04  0.2609E+04  0.1611E+03  0.4826E+02  0.0000E+00  0.0000E+00  0.0000E+00  0.0000E+00  0.0000E+00  0.0000E+00  0.0000E+00  0.0000E+00  0.0000E+00  0.0000E+00  0.0000E+00  0.0000E+00  0.0000E+00  0.0000E+00  0.0000E+00  0.0000E+00  0.0000E+00  0.4828E+02  0.9773E+01  0.0000E+00  0.0000E+00
REACH    2        0    10  0.1348E+00  0.5794E-02  0.5793E-02  0.6647E-06  0.0000E+00  0.8288E+01  0.8288E+01  0.8062E+02  0.2397E+02  0.2396E+02  0.5208E+01  0.5207E+01  0.1993E+01  0.1993E+01  0.0000E+00  0.2673E-02  0.0000E+00  0.0000E+00  0.2449E-01  0.2539E-01  0.1987E+00  0.1974E+00  0.1365E+04  0.1364E+04  0.8795E+02  0.2623E+02  0.0000E+00  0.0000E+00  0.0000E+00  0.0000E+00  0.0000E+00  0.0000E+00  0.0000E+00  0.0000E+00  0.0000E+00  0.0000E+00  0.0000E+00  0.0000E+00  0.0000E+00  0.0000E+00  0.0000E+00  0.0000E+00  0.0000E+00  0.2596E+02  0.5232E+01  0.0000E+00  0.0000E+00
REACH    3        0    10  0.1273E+00  0.5421E-02  0.5419E-02  0.1734E-05  0.0000E+00  0.6169E+01  0.6169E+01  0.6456E+02  0.2076E+02  0.2075E+02  0.4505E+01  0.4503E+01  0.1900E+01  0.1900E+01  0.0000E+00  0.3984E-02  0.0000E+00  0.0000E+00  0.2322E-01  0.2444E-01  0.1650E+00  0.1629E+00  0.1025E+04  0.1024E+04  0.8435E+02  0.2549E+02  0.0000E+00  0.0000E+00  0.0000E+00  0.0000E+00  0.0000E+00  0.0000E+00  0.0000E+00  0.0000E+00  0.0000E+00  0.0000E+00  0.0000E+00  0.0000E+00  0.0000E+00  0.0000E+00  0.0000E+00  0.0000E+00  0.0000E+00  0.2265E+02  0.4527E+01  0.0000E+00  0.0000E+00
REACH    4        0    10  0.1895E+00  0.8367E-02  0.8362E-02  0.4636E-05  0.0000E+00  0.1177E+02  0.1177E+02  0.8019E+02  0.2946E+02  0.2945E+02  0.6391E+01  0.6387E+01  0.3102E+01  0.3100E+01  0.0000E+00  0.1013E-01  0.0000E+00  0.0000E+00  0.4223E-01  0.4534E-01  0.2849E+00  0.2787E+00  0.1984E+04  0.1978E+04  0.1153E+03  0.3494E+02  0.0000E+00  0.0000E+00  0.0000E+00  0.0000E+00  0.0000E+00  0.0000E+00  0.0000E+00  0.0000E+00  0.0000E+00  0.0000E+00  0.0000E+00  0.0000E+00  0.0000E+00  0.0000E+00  0.0000E+00  0.0000E+00  0.0000E+00  0.3256E+02  0.6432E+01  0.0000E+00  0.0000E+00
REACH    5        0    10  0.2556E+00  0.1099E-01  0.1099E-01  0.5352E-05  0.0000E+00  0.1167E+02  0.1167E+02  0.6112E+02  0.4153E+02  0.4152E+02  0.9005E+01  0.9001E+01  0.4007E+01  0.4006E+01  0.0000E+00  0.1200E-01  0.0000E+00  0.0000E+00  0.5315E-01  0.5682E-01  0.3735E+00  0.3666E+00  0.2085E+04  0.2080E+04  0.1582E+03  0.4730E+02  0.0000E+00  0.0000E+00  0.0000E+00  0.0000E+00  0.0000E+00  0.0000E+00  0.0000E+00  0.0000E+00  0.0000E+00  0.0000E+00  0.0000E+00  0.0000E+00  0.0000E+00  0.0000E+00  0.0000E+00  0.0000E+00  0.0000E+00  0.4554E+02  0.9058E+01  0.0000E+00  0.0000E+00
REACH    6        0    10  0.5361E+00  0.2287E-01  0.2286E-01  0.9644E-05  0.0000E+00  0.2435E+02  0.1663E+02  0.7037E+02  0.8483E+02  0.8479E+02  0.1840E+02  0.1838E+02  0.8238E+01  0.8236E+01  0.1598E-01  0.4624E-01  0.0000E+00  0.5893E-04  0.1113E+00  0.1219E+00  0.7041E+00  0.6922E+00  0.4176E+04  0.4162E+04  0.1761E+03  0.1053E+03  0.0000E+00  0.0000E+00  0.0000E+00  0.0000E+00  0.0000E+00  0.0000E+00  0.0000E+00  0.0000E+00  0.0000E+00  0.0000E+00  0.0000E+00  0.0000E+00  0.0000E+00  0.0000E+00  0.0000E+00  0.0000E+00  0.0000E+00  0.9307E+02  0.1851E+02  0.0000E+00  0.0000E+00
REACH    7        0    10  0.8570E+00  0.3686E-01  0.3685E-01  0.7436E-05  0.0000E+00  0.3683E+02  0.3296E+02  0.8314E+02  0.1366E+03  0.1366E+03  0.2982E+02  0.2981E+02  0.1422E+02  0.1422E+02  0.5638E-01  0.8069E-01  0.5893E-04  0.1525E-03  0.2356E+00  0.2435E+00  0.1211E+01  0.1202E+01  0.7614E+04  0.7602E+04  0.2234E+03  0.1658E+03  0.0000E+00  0.0000E+00  0.0000E+00  0.0000E+00  0.0000E+00  0.0000E+00  0.0000E+00  0.0000E+00  0.0000E+00  0.0000E+00  0.0000E+00  0.0000E+00  0.0000E+00  0.0000E+00  0.0000E+00  0.0000E+00  0.0000E+00  0.1509E+03  0.3006E+02  0.0000E+00  0.0000E+00
REACH    8        0    10  0.1082E+01  0.4627E-01  0.4626E-01  0.1227E-04  0.0000E+00  0.4456E+02  0.3615E+02  0.7377E+02  0.1691E+03  0.1691E+03  0.3694E+02  0.3692E+02  0.1774E+02  0.1774E+02  0.8336E-01  0.1304E+00  0.1525E-03  0.2998E-03  0.2927E+00  0.3083E+00  0.1466E+01  0.1450E+01  0.9657E+04  0.9633E+04  0.2531E+03  0.2034E+03  0.0000E+00  0.0000E+00  0.0000E+00  0.0000E+00  0.0000E+00  0.0000E+00  0.0000E+00  0.0000E+00  0.0000E+00  0.0000E+00  0.0000E+00  0.0000E+00  0.0000E+00  0.0000E+00  0.0000E+00  0.0000E+00  0.0000E+00  0.1869E+03  0.3723E+02  0.0000E+00  0.0000E+00
REACH    9        0    10  0.1363E+01  0.5816E-01  0.5816E-01  0.5571E-05  0.0000E+00  0.5288E+02  0.4481E+02  0.7521E+02  0.2171E+03  0.2171E+03  0.4741E+02  0.4740E+02  0.2210E+02  0.2210E+02  0.1488E+00  0.1721E+00  0.2998E-03  0.3872E-03  0.3788E+00  0.3866E+00  0.1839E+01  0.1832E+01  0.1237E+05  0.1236E+05  0.2772E+03  0.2593E+03  0.0000E+00  0.0000E+00  0.0000E+00  0.0000E+00  0.0000E+00  0.0000E+00  0.0000E+00  0.0000E+00  0.0000E+00  0.0000E+00  0.0000E+00  0.0000E+00  0.0000E+00  0.0000E+00  0.0000E+00  0.0000E+00  0.0000E+00  0.2393E+03  0.4779E+02  0.0000E+00  0.0000E+00
REACH    1        0    11  0.2442E+00  0.3199E-01  0.3198E-01  0.1040E-04  0.0000E+00  0.1052E+03  0.1052E+03  0.4053E+03  0.2212E+03  0.2210E+03  0.4830E+02  0.4825E+02  0.1346E+02  0.1345E+02  0.0000E+00  0.1165E+00  0.0000E+00  0.0000E+00  0.1422E+00  0.1835E+00  0.2226E+01  0.2162E+01  0.1589E+05  0.1581E+05  0.5229E+03  0.2766E+03  0.0000E+00  0.0000E+00  0.0000E+00  0.0000E+00  0.0000E+00  0.0000E+00  0.0000E+00  0.0000E+00  0.0000E+00  0.0000E+00  0.0000E+00  0.0000E+00  0.0000E+00  0.0000E+00  0.0000E+00  0.0000E+00  0.0000E+00  0.2346E+03  0.4843E+02  0.0000E+00  0.0000E+00
REACH    2        0    11  0.1348E+00  0.1774E-01  0.1774E-01  0.8654E-06  0.0000E+00  0.5550E+02  0.5550E+02  0.3832E+03  0.1203E+03  0.1202E+03  0.2615E+02  0.2614E+02  0.7216E+01  0.7216E+01  0.0000E+00  0.9731E-02  0.0000E+00  0.0000E+00  0.7343E-01  0.7687E-01  0.1239E+01  0.1233E+01  0.8527E+04  0.8521E+04  0.2860E+03  0.1567E+03  0.0000E+00  0.0000E+00  0.0000E+00  0.0000E+00  0.0000E+00  0.0000E+00  0.0000E+00  0.0000E+00  0.0000E+00  0.0000E+00  0.0000E+00  0.0000E+00  0.0000E+00  0.0000E+00  0.0000E+00  0.0000E+00  0.0000E+00  0.1275E+03  0.2622E+02  0.0000E+00  0.0000E+00
REACH    3        0    11  0.1273E+00  0.1667E-01  0.1666E-01  0.3284E-05  0.0000E+00  0.4129E+02  0.4129E+02  0.3039E+03  0.1084E+03  0.1084E+03  0.2354E+02  0.2353E+02  0.6794E+01  0.6792E+01  0.0000E+00  0.2311E-01  0.0000E+00  0.0000E+00  0.7157E-01  0.7965E-01  0.1079E+01  0.1063E+01  0.6618E+04  0.6603E+04  0.2734E+03  0.1490E+03  0.0000E+00  0.0000E+00  0.0000E+00  0.0000E+00  0.0000E+00  0.0000E+00  0.0000E+00  0.0000E+00  0.0000E+00  0.0000E+00  0.0000E+00  0.0000E+00  0.0000E+00  0.0000E+00  0.0000E+00  0.0000E+00  0.0000E+00  0.1152E+03  0.2360E+02  0.0000E+00  0.0000E+00
REACH    4        0    11  0.1895E+00  0.2512E-01  0.2511E-01  0.7721E-05  0.0000E+00  0.8000E+02  0.8000E+02  0.3955E+03  0.1524E+03  0.1523E+03  0.3308E+02  0.3305E+02  0.9538E+01  0.9535E+01  0.0000E+00  0.6508E-01  0.0000E+00  0.0000E+00  0.1179E+00  0.1407E+00  0.1779E+01  0.1731E+01  0.1270E+05  0.1265E+05  0.3804E+03  0.2026E+03  0.0000E+00  0.0000E+00  0.0000E+00  0.0000E+00  0.0000E+00  0.0000E+00  0.0000E+00  0.0000E+00  0.0000E+00  0.0000E+00  0.0000E+00  0.0000E+00  0.0000E+00  0.0000E+00  0.0000E+00  0.0000E+00  0.0000E+00  0.1619E+03  0.3319E+02  0.0000E+00  0.0000E+00
REACH    5        0    11  0.2556E+00  0.3364E-01  0.3363E-01  0.8360E-05  0.0000E+00  0.7565E+02  0.7565E+02  0.2771E+03  0.2191E+03  0.2190E+03  0.4753E+02  0.4750E+02  0.1234E+02  0.1233E+02  0.0000E+00  0.6523E-01  0.0000E+00  0.0000E+00  0.1555E+00  0.1783E+00  0.2460E+01  0.2414E+01  0.1344E+05  0.1339E+05  0.5255E+03  0.2711E+03  0.0000E+00  0.0000E+00  0.0000E+00  0.0000E+00  0.0000E+00  0.0000E+00  0.0000E+00  0.0000E+00  0.0000E+00  0.0000E+00  0.0000E+00  0.0000E+00  0.0000E+00  0.0000E+00  0.0000E+00  0.0000E+00  0.0000E+00  0.2314E+03  0.4768E+02  0.0000E+00  0.0000E+00
REACH    6        0    11  0.5361E+00  0.7006E-01  0.7005E-01  0.1553E-04  0.0000E+00  0.1606E+03  0.4067E+02  0.1330E+03  0.4472E+03  0.4469E+03  0.9702E+02  0.9693E+02  0.2709E+02  0.2708E+02  0.8834E-01  0.2573E+00  0.0000E+00  0.1306E-04  0.3525E+00  0.4280E+00  0.4636E+01  0.4543E+01  0.2693E+05  0.2680E+05  0.7493E+03  0.5963E+03  0.0000E+00  0.0000E+00  0.0000E+00  0.0000E+00  0.0000E+00  0.0000E+00  0.0000E+00  0.0000E+00  0.0000E+00  0.0000E+00  0.0000E+00  0.0000E+00  0.0000E+00  0.0000E+00  0.0000E+00  0.0000E+00  0.0000E+00  0.4742E+03  0.9736E+02  0.0000E+00  0.0000E+00
REACH    7        0    11  0.8570E+00  0.1123E+00  0.1123E+00  0.1115E-04  0.0000E+00  0.1728E+03  0.8512E+02  0.1631E+03  0.7077E+03  0.7075E+03  0.1542E+03  0.1542E+03  0.4473E+02  0.4472E+02  0.3224E+00  0.4725E+00  0.1306E-04  0.8417E-04  0.7302E+00  0.7836E+00  0.7474E+01  0.7412E+01  0.4775E+05  0.4766E+05  0.1071E+04  0.9319E+03  0.0000E+00  0.0000E+00  0.0000E+00  0.0000E+00  0.0000E+00  0.0000E+00  0.0000E+00  0.0000E+00  0.0000E+00  0.0000E+00  0.0000E+00  0.0000E+00  0.0000E+00  0.0000E+00  0.0000E+00  0.0000E+00  0.0000E+00  0.7527E+03  0.1550E+03  0.0000E+00  0.0000E+00
REACH    8        0    11  0.1082E+01  0.1414E+00  0.1414E+00  0.1827E-04  0.0000E+00  0.1571E+03  0.9698E+02  0.1473E+03  0.8785E+03  0.8781E+03  0.1915E+03  0.1914E+03  0.5696E+02  0.5695E+02  0.4822E+00  0.7633E+00  0.8417E-04  0.2050E-03  0.9323E+00  0.1033E+01  0.9028E+01  0.8929E+01  0.5918E+05  0.5901E+05  0.1282E+04  0.1082E+04  0.0000E+00  0.0000E+00  0.0000E+00  0.0000E+00  0.0000E+00  0.0000E+00  0.0000E+00  0.0000E+00  0.0000E+00  0.0000E+00  0.0000E+00  0.0000E+00  0.0000E+00  0.0000E+00  0.0000E+00  0.0000E+00  0.0000E+00  0.9358E+03  0.1924E+03  0.0000E+00  0.0000E+00
REACH    9        0    11  0.1363E+01  0.1780E+00  0.1780E+00  0.8235E-05  0.0000E+00  0.2074E+03  0.1255E+03  0.1506E+03  0.1119E+04  0.1119E+04  0.2439E+03  0.2439E+03  0.7206E+02  0.7206E+02  0.8798E+00  0.1014E+01  0.2050E-03  0.3298E-03  0.1264E+01  0.1311E+01  0.1129E+02  0.1125E+02  0.7570E+05  0.7561E+05  0.1439E+04  0.1394E+04  0.0000E+00  0.0000E+00  0.0000E+00  0.0000E+00  0.0000E+00  0.0000E+00  0.0000E+00  0.0000E+00  0.0000E+00  0.0000E+00  0.0000E+00  0.0000E+00  0.0000E+00  0.0000E+00  0.0000E+00  0.0000E+00  0.0000E+00  0.1192E+04  0.2452E+03  0.0000E+00  0.0000E+00
REACH    1        0    12  0.2442E+00  0.5439E-01  0.5437E-01  0.1350E-04  0.0000E+00  0.5871E+03  0.5871E+03  0.8096E+03  0.7536E+03  0.7531E+03  0.1642E+03  0.1640E+03  0.1586E+02  0.1585E+02  0.0000E+00  0.3223E+00  0.0000E+00  0.0000E+00  0.3028E+00  0.4180E+00  0.1495E+02  0.1467E+02  0.1111E+06  0.1107E+06  0.6770E+03  0.3404E+03  0.0000E+00  0.0000E+00  0.0000E+00  0.0000E+00  0.0000E+00  0.0000E+00  0.0000E+00  0.0000E+00  0.0000E+00  0.0000E+00  0.0000E+00  0.0000E+00  0.0000E+00  0.0000E+00  0.0000E+00  0.0000E+00  0.0000E+00  0.7693E+03  0.1645E+03  0.0000E+00  0.0000E+00
REACH    2        0    12  0.1348E+00  0.3014E-01  0.3014E-01  0.1168E-05  0.0000E+00  0.3112E+03  0.3112E+03  0.7728E+03  0.4079E+03  0.4078E+03  0.8868E+02  0.8866E+02  0.8653E+01  0.8653E+01  0.0000E+00  0.2355E-01  0.0000E+00  0.0000E+00  0.1611E+00  0.1695E+00  0.8354E+01  0.8330E+01  0.6021E+05  0.6018E+05  0.3670E+03  0.1877E+03  0.0000E+00  0.0000E+00  0.0000E+00  0.0000E+00  0.0000E+00  0.0000E+00  0.0000E+00  0.0000E+00  0.0000E+00  0.0000E+00  0.0000E+00  0.0000E+00  0.0000E+00  0.0000E+00  0.0000E+00  0.0000E+00  0.0000E+00  0.4165E+03  0.8883E+02  0.0000E+00  0.0000E+00
REACH    3        0    12  0.1273E+00  0.2833E-01  0.2833E-01  0.3936E-05  0.0000E+00  0.2343E+03  0.2343E+03  0.6172E+03  0.4014E+03  0.4013E+03  0.8711E+02  0.8708E+02  0.8080E+01  0.8078E+01  0.0000E+00  0.7478E-01  0.0000E+00  0.0000E+00  0.1665E+00  0.1930E+00  0.7915E+01  0.7833E+01  0.4730E+05  0.4721E+05  0.3536E+03  0.1832E+03  0.0000E+00  0.0000E+00  0.0000E+00  0.0000E+00  0.0000E+00  0.0000E+00  0.0000E+00  0.0000E+00  0.0000E+00  0.0000E+00  0.0000E+00  0.0000E+00  0.0000E+00  0.0000E+00  0.0000E+00  0.0000E+00  0.0000E+00  0.4095E+03  0.8727E+02  0.0000E+00  0.0000E+00
REACH    4        0    12  0.1895E+00  0.4263E-01  0.4262E-01  0.1010E-04  0.0000E+00  0.4547E+03  0.4547E+03  0.8216E+03  0.5276E+03  0.5273E+03  0.1145E+03  0.1144E+03  0.1030E+02  0.1030E+02  0.0000E+00  0.1892E+00  0.0000E+00  0.0000E+00  0.2304E+00  0.2976E+00  0.1212E+02  0.1191E+02  0.9072E+05  0.9040E+05  0.4717E+03  0.2340E+03  0.0000E+00  0.0000E+00  0.0000E+00  0.0000E+00  0.0000E+00  0.0000E+00  0.0000E+00  0.0000E+00  0.0000E+00  0.0000E+00  0.0000E+00  0.0000E+00  0.0000E+00  0.0000E+00  0.0000E+00  0.0000E+00  0.0000E+00  0.5378E+03  0.1147E+03  0.0000E+00  0.0000E+00
REACH    5        0    12  0.2556E+00  0.5709E-01  0.5708E-01  0.1095E-04  0.0000E+00  0.4104E+03  0.4104E+03  0.5411E+03  0.7812E+03  0.7809E+03  0.1696E+03  0.1695E+03  0.1283E+02  0.1282E+02  0.0000E+00  0.2404E+00  0.0000E+00  0.0000E+00  0.3212E+00  0.4068E+00  0.1670E+02  0.1646E+02  0.9009E+05  0.8982E+05  0.6674E+03  0.3404E+03  0.0000E+00  0.0000E+00  0.0000E+00  0.0000E+00  0.0000E+00  0.0000E+00  0.0000E+00  0.0000E+00  0.0000E+00  0.0000E+00  0.0000E+00  0.0000E+00  0.0000E+00  0.0000E+00  0.0000E+00  0.0000E+00  0.0000E+00  0.7939E+03  0.1699E+03  0.0000E+00  0.0000E+00
REACH    6        0    12  0.5361E+00  0.1192E+00  0.1191E+00  0.1988E-04  0.0000E+00  0.8957E+03  0.7902E+02  0.1348E+03  0.1659E+04  0.1658E+04  0.3599E+03  0.3596E+03  0.3018E+02  0.3017E+02  0.3152E+00  0.9291E+00  0.0000E+00  0.7037E-04  0.8351E+00  0.1068E+01  0.3342E+02  0.3298E+02  0.1877E+06  0.1870E+06  0.9533E+03  0.7425E+03  0.0000E+00  0.0000E+00  0.0000E+00  0.0000E+00  0.0000E+00  0.0000E+00  0.0000E+00  0.0000E+00  0.0000E+00  0.0000E+00  0.0000E+00  0.0000E+00  0.0000E+00  0.0000E+00  0.0000E+00  0.0000E+00  0.0000E+00  0.1689E+04  0.3606E+03  0.0000E+00  0.0000E+00
REACH    7        0    12  0.8570E+00  0.1910E+00  0.1910E+00  0.1419E-04  0.0000E+00  0.8121E+03  0.1627E+03  0.1651E+03  0.2563E+04  0.2563E+04  0.5578E+03  0.5576E+03  0.4907E+02  0.4906E+02  0.1118E+01  0.1575E+01  0.7037E-04  0.1869E-03  0.1642E+01  0.1805E+01  0.5262E+02  0.5233E+02  0.3319E+06  0.3314E+06  0.1326E+04  0.1126E+04  0.0000E+00  0.0000E+00  0.0000E+00  0.0000E+00  0.0000E+00  0.0000E+00  0.0000E+00  0.0000E+00  0.0000E+00  0.0000E+00  0.0000E+00  0.0000E+00  0.0000E+00  0.0000E+00  0.0000E+00  0.0000E+00  0.0000E+00  0.2614E+04  0.5594E+03  0.0000E+00  0.0000E+00
REACH    8        0    12  0.1082E+01  0.2406E+00  0.2406E+00  0.2436E-04  0.0000E+00  0.5601E+03  0.1678E+03  0.1391E+03  0.3244E+04  0.3243E+04  0.7055E+03  0.7051E+03  0.6305E+02  0.6303E+02  0.1598E+01  0.2543E+01  0.1869E-03  0.4788E-03  0.2161E+01  0.2499E+01  0.6494E+02  0.6444E+02  0.4088E+06  0.4077E+06  0.1578E+04  0.1412E+04  0.0000E+00  0.0000E+00  0.0000E+00  0.0000E+00  0.0000E+00  0.0000E+00  0.0000E+00  0.0000E+00  0.0000E+00  0.0000E+00  0.0000E+00  0.0000E+00  0.0000E+00  0.0000E+00  0.0000E+00  0.0000E+00  0.0000E+00  0.3308E+04  0.7076E+03  0.0000E+00  0.0000E+00
REACH    9        0    12  0.1363E+01  0.3030E+00  0.3030E+00  0.1091E-04  0.0000E+00  0.7858E+03  0.2181E+03  0.1495E+03  0.4092E+04  0.4092E+04  0.8899E+03  0.8897E+03  0.8077E+02  0.8076E+02  0.2865E+01  0.3318E+01  0.4788E-03  0.6793E-03  0.3032E+01  0.3194E+01  0.8091E+02  0.8069E+02  0.5251E+06  0.5245E+06  0.1862E+04  0.1799E+04  0.0000E+00  0.0000E+00  0.0000E+00  0.0000E+00  0.0000E+00  0.0000E+00  0.0000E+00  0.0000E+00  0.0000E+00  0.0000E+00  0.0000E+00  0.0000E+00  0.0000E+00  0.0000E+00  0.0000E+00  0.0000E+00  0.0000E+00  0.4176E+04  0.8929E+03  0.0000E+00  0.0000E+00
REACH    1        0  2009  0.2442E+00  0.1974E-01  0.1973E-01  0.8075E-05  0.0000E+00  0.8352E+03  0.8352E+03  0.1784E+03  0.1253E+04  0.1253E+04  0.2739E+03  0.2736E+03  0.7835E+02  0.7831E+02  0.0000E+00  0.5948E+00  0.0000E+00  0.0000E+00  0.1013E+01  0.1218E+01  0.1973E+02  0.1931E+02  0.1476E+06  0.1469E+06  0.3723E+04  0.1895E+04  0.0000E+00  0.0000E+00  0.0000E+00  0.0000E+00  0.0000E+00  0.0000E+00  0.0000E+00  0.0000E+00  0.0000E+00  0.0000E+00  0.0000E+00  0.0000E+00  0.0000E+00  0.0000E+00  0.0000E+00  0.0000E+00  0.0000E+00  0.1332E+04  0.2748E+03  0.0000E+00  0.0000E+00
REACH    2        0  2009  0.1348E+00  0.1093E-01  0.1093E-01  0.6641E-06  0.0000E+00  0.4372E+03  0.4372E+03  0.1668E+03  0.6743E+03  0.6743E+03  0.1468E+03  0.1467E+03  0.3874E+02  0.3873E+02  0.0000E+00  0.4648E-01  0.0000E+00  0.0000E+00  0.5275E+00  0.5435E+00  0.1084E+02  0.1080E+02  0.7865E+05  0.7860E+05  0.2035E+04  0.1180E+04  0.0000E+00  0.0000E+00  0.0000E+00  0.0000E+00  0.0000E+00  0.0000E+00  0.0000E+00  0.0000E+00  0.0000E+00  0.0000E+00  0.0000E+00  0.0000E+00  0.0000E+00  0.0000E+00  0.0000E+00  0.0000E+00  0.0000E+00  0.7131E+03  0.1473E+03  0.0000E+00  0.0000E+00
REACH    3        0  2009  0.1273E+00  0.1029E-01  0.1029E-01  0.2346E-05  0.0000E+00  0.3271E+03  0.3271E+03  0.1313E+03  0.6311E+03  0.6310E+03  0.1371E+03  0.1371E+03  0.3675E+02  0.3675E+02  0.0000E+00  0.1259E+00  0.0000E+00  0.0000E+00  0.5248E+00  0.5673E+00  0.9998E+01  0.9884E+01  0.6125E+05  0.6113E+05  0.1959E+04  0.1169E+04  0.0000E+00  0.0000E+00  0.0000E+00  0.0000E+00  0.0000E+00  0.0000E+00  0.0000E+00  0.0000E+00  0.0000E+00  0.0000E+00  0.0000E+00  0.0000E+00  0.0000E+00  0.0000E+00  0.0000E+00  0.0000E+00  0.0000E+00  0.6678E+03  0.1376E+03  0.0000E+00  0.0000E+00
REACH    4        0  2009  0.1895E+00  0.1546E-01  0.1546E-01  0.5973E-05  0.0000E+00  0.6635E+03  0.6635E+03  0.1978E+03  0.9099E+03  0.9094E+03  0.1979E+03  0.1977E+03  0.4967E+02  0.4965E+02  0.0000E+00  0.3624E+00  0.0000E+00  0.0000E+00  0.7674E+00  0.8904E+00  0.1603E+02  0.1570E+02  0.1215E+06  0.1211E+06  0.2679E+04  0.1313E+04  0.0000E+00  0.0000E+00  0.0000E+00  0.0000E+00  0.0000E+00  0.0000E+00  0.0000E+00  0.0000E+00  0.0000E+00  0.0000E+00  0.0000E+00  0.0000E+00  0.0000E+00  0.0000E+00  0.0000E+00  0.0000E+00  0.0000E+00  0.9594E+03  0.1986E+03  0.0000E+00  0.0000E+00
REACH    5        0  2009  0.2556E+00  0.2063E-01  0.2063E-01  0.6500E-05  0.0000E+00  0.5995E+03  0.5995E+03  0.1284E+03  0.1258E+04  0.1257E+04  0.2733E+03  0.2731E+03  0.6727E+02  0.6725E+02  0.0000E+00  0.4045E+00  0.0000E+00  0.0000E+00  0.1100E+01  0.1237E+01  0.2149E+02  0.2116E+02  0.1207E+06  0.1204E+06  0.3710E+04  0.1784E+04  0.0000E+00  0.0000E+00  0.0000E+00  0.0000E+00  0.0000E+00  0.0000E+00  0.0000E+00  0.0000E+00  0.0000E+00  0.0000E+00  0.0000E+00  0.0000E+00  0.0000E+00  0.0000E+00  0.0000E+00  0.0000E+00  0.0000E+00  0.1325E+04  0.2744E+03  0.0000E+00  0.0000E+00
REACH    6        0  2009  0.5361E+00  0.4321E-01  0.4320E-01  0.1215E-04  0.0000E+00  0.1276E+04  0.3047E+03  0.1105E+03  0.2617E+04  0.2615E+04  0.5682E+03  0.5677E+03  0.1475E+03  0.1475E+03  0.5304E+00  0.1548E+01  0.0000E+00  0.2741E-03  0.2509E+01  0.2899E+01  0.4240E+02  0.4178E+02  0.2468E+06  0.2459E+06  0.5346E+04  0.4203E+04  0.0000E+00  0.0000E+00  0.0000E+00  0.0000E+00  0.0000E+00  0.0000E+00  0.0000E+00  0.0000E+00  0.0000E+00  0.0000E+00  0.0000E+00  0.0000E+00  0.0000E+00  0.0000E+00  0.0000E+00  0.0000E+00  0.0000E+00  0.2764E+04  0.5706E+03  0.0000E+00  0.0000E+00
REACH    7        0  2009  0.8570E+00  0.6927E-01  0.6927E-01  0.8860E-05  0.0000E+00  0.1402E+04  0.6383E+03  0.1323E+03  0.4201E+04  0.4200E+04  0.9166E+03  0.9163E+03  0.2596E+03  0.2596E+03  0.1911E+01  0.2723E+01  0.2741E-03  0.7303E-03  0.4774E+01  0.5056E+01  0.6903E+02  0.6860E+02  0.4467E+06  0.4459E+06  0.7447E+04  0.6076E+04  0.0000E+00  0.0000E+00  0.0000E+00  0.0000E+00  0.0000E+00  0.0000E+00  0.0000E+00  0.0000E+00  0.0000E+00  0.0000E+00  0.0000E+00  0.0000E+00  0.0000E+00  0.0000E+00  0.0000E+00  0.0000E+00  0.0000E+00  0.4462E+04  0.9213E+03  0.0000E+00  0.0000E+00
REACH    8        0  2009  0.1082E+01  0.8730E-01  0.8728E-01  0.1496E-04  0.0000E+00  0.1235E+04  0.6689E+03  0.1182E+03  0.5278E+04  0.5276E+04  0.1151E+04  0.1151E+04  0.3319E+03  0.3319E+03  0.2769E+01  0.4412E+01  0.7303E-03  0.1645E-02  0.6147E+01  0.6723E+01  0.8552E+02  0.8477E+02  0.5570E+06  0.5555E+06  0.8685E+04  0.7011E+04  0.0000E+00  0.0000E+00  0.0000E+00  0.0000E+00  0.0000E+00  0.0000E+00  0.0000E+00  0.0000E+00  0.0000E+00  0.0000E+00  0.0000E+00  0.0000E+00  0.0000E+00  0.0000E+00  0.0000E+00  0.0000E+00  0.0000E+00  0.5612E+04  0.1157E+04  0.0000E+00  0.0000E+00
REACH    9        0  2009  0.1363E+01  0.1099E+00  0.1099E+00  0.6623E-05  0.0000E+00  0.1547E+04  0.8912E+03  0.1244E+03  0.6665E+04  0.6664E+04  0.1454E+04  0.1453E+04  0.4199E+03  0.4199E+03  0.5007E+01  0.5786E+01  0.1645E-02  0.2214E-02  0.8301E+01  0.8575E+01  0.1063E+03  0.1059E+03  0.7109E+06  0.7101E+06  0.9510E+04  0.9074E+04  0.0000E+00  0.0000E+00  0.0000E+00  0.0000E+00  0.0000E+00  0.0000E+00  0.0000E+00  0.0000E+00  0.0000E+00  0.0000E+00  0.0000E+00  0.0000E+00  0.0000E+00  0.0000E+00  0.0000E+00  0.0000E+00  0.0000E+00  0.7090E+04  0.1462E+04  0.0000E+00  0.0000E+00
REACH    1        0     1  0.2442E+00  0.5586E-01  0.5585E-01  0.1073E-04  0.0000E+00  0.1104E+04  0.1104E+04  0.1429E+04  0.1274E+04  0.1273E+04  0.2804E+03  0.2802E+03  0.1423E+02  0.1422E+02  0.0000E+00  0.5497E+00  0.0000E+00  0.0000E+00  0.4681E+00  0.6664E+00  0.2800E+02  0.2749E+02  0.1921E+06  0.1913E+06  0.6269E+03  0.3044E+03  0.0000E+00  0.0000E+00  0.0000E+00  0.0000E+00  0.0000E+00  0.0000E+00  0.0000E+00  0.0000E+00  0.0000E+00  0.0000E+00  0.0000E+00  0.0000E+00  0.0000E+00  0.0000E+00  0.0000E+00  0.0000E+00  0.0000E+00  0.1288E+04  0.2809E+03  0.0000E+00  0.0000E+00
REACH    2        0     1  0.1348E+00  0.3093E-01  0.3093E-01  0.9643E-06  0.0000E+00  0.5917E+03  0.5917E+03  0.1380E+04  0.7012E+03  0.7011E+03  0.1544E+03  0.1544E+03  0.7976E+01  0.7974E+01  0.0000E+00  0.4185E-01  0.0000E+00  0.0000E+00  0.2645E+00  0.2796E+00  0.1580E+02  0.1575E+02  0.1055E+06  0.1054E+06  0.3379E+03  0.1682E+03  0.0000E+00  0.0000E+00  0.0000E+00  0.0000E+00  0.0000E+00  0.0000E+00  0.0000E+00  0.0000E+00  0.0000E+00  0.0000E+00  0.0000E+00  0.0000E+00  0.0000E+00  0.0000E+00  0.0000E+00  0.0000E+00  0.0000E+00  0.7091E+03  0.1547E+03  0.0000E+00  0.0000E+00
REACH    3        0     1  0.1273E+00  0.2911E-01  0.2910E-01  0.3084E-05  0.0000E+00  0.4418E+03  0.4418E+03  0.1092E+04  0.6454E+03  0.6452E+03  0.1418E+03  0.1418E+03  0.7275E+01  0.7272E+01  0.0000E+00  0.1147E+00  0.0000E+00  0.0000E+00  0.2553E+00  0.2965E+00  0.1404E+02  0.1390E+02  0.8198E+05  0.8184E+05  0.3275E+03  0.1649E+03  0.0000E+00  0.0000E+00  0.0000E+00  0.0000E+00  0.0000E+00  0.0000E+00  0.0000E+00  0.0000E+00  0.0000E+00  0.0000E+00  0.0000E+00  0.0000E+00  0.0000E+00  0.0000E+00  0.0000E+00  0.0000E+00  0.0000E+00  0.6526E+03  0.1421E+03  0.0000E+00  0.0000E+00
REACH    4        0     1  0.1895E+00  0.4381E-01  0.4380E-01  0.7956E-05  0.0000E+00  0.9739E+03  0.9739E+03  0.1658E+04  0.1051E+04  0.1051E+04  0.2315E+03  0.2313E+03  0.1091E+02  0.1090E+02  0.0000E+00  0.3488E+00  0.0000E+00  0.0000E+00  0.3918E+00  0.5173E+00  0.2629E+02  0.2587E+02  0.1782E+06  0.1776E+06  0.4279E+03  0.2052E+03  0.0000E+00  0.0000E+00  0.0000E+00  0.0000E+00  0.0000E+00  0.0000E+00  0.0000E+00  0.0000E+00  0.0000E+00  0.0000E+00  0.0000E+00  0.0000E+00  0.0000E+00  0.0000E+00  0.0000E+00  0.0000E+00  0.0000E+00  0.1062E+04  0.2319E+03  0.0000E+00  0.0000E+00
REACH    5        0     1  0.2556E+00  0.5837E-01  0.5837E-01  0.8641E-05  0.0000E+00  0.7868E+03  0.7868E+03  0.9743E+03  0.1282E+04  0.1282E+04  0.2821E+03  0.2820E+03  0.1152E+02  0.1151E+02  0.0000E+00  0.3633E+00  0.0000E+00  0.0000E+00  0.5252E+00  0.6558E+00  0.2981E+02  0.2942E+02  0.1589E+06  0.1584E+06  0.6059E+03  0.2914E+03  0.0000E+00  0.0000E+00  0.0000E+00  0.0000E+00  0.0000E+00  0.0000E+00  0.0000E+00  0.0000E+00  0.0000E+00  0.0000E+00  0.0000E+00  0.0000E+00  0.0000E+00  0.0000E+00  0.0000E+00  0.0000E+00  0.0000E+00  0.1294E+04  0.2826E+03  0.0000E+00  0.0000E+00
REACH    6        0     1  0.5361E+00  0.1223E+00  0.1223E+00  0.1579E-04  0.0000E+00  0.1703E+04  0.8369E+02  0.1668E+03  0.2681E+04  0.2680E+04  0.5890E+03  0.5886E+03  0.2710E+02  0.2707E+02  0.4780E+00  0.1432E+01  0.0000E+00  0.4416E-04  0.1284E+01  0.1653E+01  0.5933E+02  0.5860E+02  0.3283E+06  0.3271E+06  0.8582E+03  0.6529E+03  0.0000E+00  0.0000E+00  0.0000E+00  0.0000E+00  0.0000E+00  0.0000E+00  0.0000E+00  0.0000E+00  0.0000E+00  0.0000E+00  0.0000E+00  0.0000E+00  0.0000E+00  0.0000E+00  0.0000E+00  0.0000E+00  0.0000E+00  0.2708E+04  0.5902E+03  0.0000E+00  0.0000E+00
REACH    7        0     1  0.8570E+00  0.1961E+00  0.1961E+00  0.1135E-04  0.0000E+00  0.1586E+04  0.1667E+03  0.2017E+03  0.4390E+04  0.4389E+04  0.9654E+03  0.9650E+03  0.4577E+02  0.4574E+02  0.1781E+01  0.2562E+01  0.4416E-04  0.2567E-05  0.2479E+01  0.2761E+01  0.9944E+02  0.9891E+02  0.5999E+06  0.5988E+06  0.1181E+04  0.9914E+03  0.0000E+00  0.0000E+00  0.0000E+00  0.0000E+00  0.0000E+00  0.0000E+00  0.0000E+00  0.0000E+00  0.0000E+00  0.0000E+00  0.0000E+00  0.0000E+00  0.0000E+00  0.0000E+00  0.0000E+00  0.0000E+00  0.0000E+00  0.4437E+04  0.9678E+03  0.0000E+00  0.0000E+00
REACH    8        0     1  0.1082E+01  0.2473E+00  0.2472E+00  0.1928E-04  0.0000E+00  0.9105E+03  0.1762E+03  0.1746E+03  0.5493E+04  0.5491E+04  0.1207E+04  0.1207E+04  0.5831E+02  0.5826E+02  0.2604E+01  0.4226E+01  0.2567E-05  0.3556E-03  0.3264E+01  0.3850E+01  0.1221E+03  0.1212E+03  0.7322E+06  0.7301E+06  0.1412E+04  0.1217E+04  0.0000E+00  0.0000E+00  0.0000E+00  0.0000E+00  0.0000E+00  0.0000E+00  0.0000E+00  0.0000E+00  0.0000E+00  0.0000E+00  0.0000E+00  0.0000E+00  0.0000E+00  0.0000E+00  0.0000E+00  0.0000E+00  0.0000E+00  0.5554E+04  0.1210E+04  0.0000E+00  0.0000E+00
REACH    9        0     1  0.1363E+01  0.3114E+00  0.3114E+00  0.8647E-05  0.0000E+00  0.1338E+04  0.2283E+03  0.1788E+03  0.6910E+04  0.6909E+04  0.1518E+04  0.1518E+04  0.7415E+02  0.7412E+02  0.4775E+01  0.5528E+01  0.3556E-03  0.3000E-03  0.4651E+01  0.4923E+01  0.1517E+03  0.1513E+03  0.9332E+06  0.9322E+06  0.1626E+04  0.1557E+04  0.0000E+00  0.0000E+00  0.0000E+00  0.0000E+00  0.0000E+00  0.0000E+00  0.0000E+00  0.0000E+00  0.0000E+00  0.0000E+00  0.0000E+00  0.0000E+00  0.0000E+00  0.0000E+00  0.0000E+00  0.0000E+00  0.0000E+00  0.6989E+04  0.1523E+04  0.0000E+00  0.0000E+00
REACH    1        0     2  0.2442E+00  0.3510E-01  0.3508E-01  0.1169E-04  0.0000E+00  0.1224E+03  0.1224E+03  0.4727E+03  0.6627E+02  0.6621E+02  0.1459E+02  0.1457E+02  0.1481E+02  0.1481E+02  0.0000E+00  0.3991E-01  0.0000E+00  0.0000E+00  0.4260E-01  0.5632E-01  0.9093E+00  0.8801E+00  0.2092E+05  0.2080E+05  0.4712E+03  0.2635E+03  0.0000E+00  0.0000E+00  0.0000E+00  0.0000E+00  0.0000E+00  0.0000E+00  0.0000E+00  0.0000E+00  0.0000E+00  0.0000E+00  0.0000E+00  0.0000E+00  0.0000E+00  0.0000E+00  0.0000E+00  0.0000E+00  0.0000E+00  0.8106E+02  0.1463E+02  0.0000E+00  0.0000E+00
REACH    2        0     2  0.1348E+00  0.1933E-01  0.1933E-01  0.1182E-05  0.0000E+00  0.6431E+02  0.6431E+02  0.4462E+03  0.3913E+02  0.3912E+02  0.8615E+01  0.8613E+01  0.2681E+01  0.2681E+01  0.0000E+00  0.3677E-02  0.0000E+00  0.0000E+00  0.2542E-01  0.2669E-01  0.5249E+00  0.5222E+00  0.1134E+05  0.1133E+05  0.2529E+03  0.1492E+03  0.0000E+00  0.0000E+00  0.0000E+00  0.0000E+00  0.0000E+00  0.0000E+00  0.0000E+00  0.0000E+00  0.0000E+00  0.0000E+00  0.0000E+00  0.0000E+00  0.0000E+00  0.0000E+00  0.0000E+00  0.0000E+00  0.0000E+00  0.4181E+02  0.8640E+01  0.0000E+00  0.0000E+00
REACH    3        0     2  0.1273E+00  0.1830E-01  0.1829E-01  0.3347E-05  0.0000E+00  0.4657E+02  0.4657E+02  0.3447E+03  0.3985E+02  0.3984E+02  0.8759E+01  0.8754E+01  0.2365E+01  0.2364E+01  0.0000E+00  0.8300E-02  0.0000E+00  0.0000E+00  0.2509E-01  0.2786E-01  0.4820E+00  0.4752E+00  0.8373E+04  0.8356E+04  0.2477E+03  0.1485E+03  0.0000E+00  0.0000E+00  0.0000E+00  0.0000E+00  0.0000E+00  0.0000E+00  0.0000E+00  0.0000E+00  0.0000E+00  0.0000E+00  0.0000E+00  0.0000E+00  0.0000E+00  0.0000E+00  0.0000E+00  0.0000E+00  0.0000E+00  0.4221E+02  0.8782E+01  0.0000E+00  0.0000E+00
REACH    4        0     2  0.1895E+00  0.2712E-01  0.2711E-01  0.8741E-05  0.0000E+00  0.1342E+03  0.1342E+03  0.6463E+03  0.7027E+02  0.7021E+02  0.1547E+02  0.1546E+02  0.3394E+01  0.3393E+01  0.0000E+00  0.3721E-01  0.0000E+00  0.0000E+00  0.3309E-01  0.4599E-01  0.1308E+01  0.1269E+01  0.2541E+05  0.2528E+05  0.3152E+03  0.1840E+03  0.0000E+00  0.0000E+00  0.0000E+00  0.0000E+00  0.0000E+00  0.0000E+00  0.0000E+00  0.0000E+00  0.0000E+00  0.0000E+00  0.0000E+00  0.0000E+00  0.0000E+00  0.0000E+00  0.0000E+00  0.0000E+00  0.0000E+00  0.7364E+02  0.1550E+02  0.0000E+00  0.0000E+00
REACH    5        0     2  0.2556E+00  0.3609E-01  0.3608E-01  0.9770E-05  0.0000E+00  0.9095E+02  0.9095E+02  0.3334E+03  0.9589E+02  0.9585E+02  0.2110E+02  0.2109E+02  0.3352E+01  0.3351E+01  0.0000E+00  0.2219E-01  0.0000E+00  0.0000E+00  0.4674E-01  0.5425E-01  0.1435E+01  0.1416E+01  0.1795E+05  0.1791E+05  0.4558E+03  0.2596E+03  0.0000E+00  0.0000E+00  0.0000E+00  0.0000E+00  0.0000E+00  0.0000E+00  0.0000E+00  0.0000E+00  0.0000E+00  0.0000E+00  0.0000E+00  0.0000E+00  0.0000E+00  0.0000E+00  0.0000E+00  0.0000E+00  0.0000E+00  0.9923E+02  0.2114E+02  0.0000E+00  0.0000E+00
REACH    6        0     2  0.5361E+00  0.7653E-01  0.7651E-01  0.1744E-04  0.0000E+00  0.1872E+03  0.3702E+02  0.1487E+03  0.1836E+03  0.1835E+03  0.4034E+02  0.4030E+02  0.8497E+01  0.8495E+01  0.3049E-01  0.9012E-01  0.0000E+00  0.2756E-05  0.1236E+00  0.1598E+00  0.2443E+01  0.2390E+01  0.3515E+05  0.3496E+05  0.7166E+03  0.5870E+03  0.0000E+00  0.0000E+00  0.0000E+00  0.0000E+00  0.0000E+00  0.0000E+00  0.0000E+00  0.0000E+00  0.0000E+00  0.0000E+00  0.0000E+00  0.0000E+00  0.0000E+00  0.0000E+00  0.0000E+00  0.0000E+00  0.0000E+00  0.1921E+03  0.4046E+02  0.0000E+00  0.0000E+00
REACH    7        0     2  0.8570E+00  0.1226E+00  0.1226E+00  0.1299E-04  0.0000E+00  0.2460E+03  0.7783E+02  0.1768E+03  0.3038E+03  0.3037E+03  0.6695E+02  0.6692E+02  0.4798E+02  0.4798E+02  0.1273E+00  0.1968E+00  0.2756E-05  0.6208E-05  0.2338E+00  0.2583E+00  0.4746E+01  0.4705E+01  0.7373E+05  0.7357E+05  0.1015E+04  0.8891E+03  0.0000E+00  0.0000E+00  0.0000E+00  0.0000E+00  0.0000E+00  0.0000E+00  0.0000E+00  0.0000E+00  0.0000E+00  0.0000E+00  0.0000E+00  0.0000E+00  0.0000E+00  0.0000E+00  0.0000E+00  0.0000E+00  0.0000E+00  0.3519E+03  0.6717E+02  0.0000E+00  0.0000E+00
[...]
REACH    4        0  2011  0.1895E+00  0.1123E-01  0.1122E-01  0.5131E-05  0.0000E+00  0.9818E+03  0.9818E+03  0.2518E+03  0.8895E+03  0.8891E+03  0.1966E+03  0.1965E+03  0.2995E+02  0.2993E+02  0.0000E+00  0.3065E+00  0.0000E+00  0.0000E+00  0.5523E+00  0.6575E+00  0.1570E+02  0.1543E+02  0.1452E+06  0.1447E+06  0.2196E+04  0.1034E+04  0.0000E+00  0.0000E+00  0.0000E+00  0.0000E+00  0.0000E+00  0.0000E+00  0.0000E+00  0.0000E+00  0.0000E+00  0.0000E+00  0.0000E+00  0.0000E+00  0.0000E+00  0.0000E+00  0.0000E+00  0.0000E+00  0.0000E+00  0.9193E+03  0.1972E+03  0.0000E+00  0.0000E+00
REACH    5        0  2011  0.2556E+00  0.1488E-01  0.1487E-01  0.5786E-05  0.0000E+00  0.9009E+03  0.9009E+03  0.1734E+03  0.1175E+04  0.1175E+04  0.2592E+03  0.2591E+03  0.4817E+02  0.4815E+02  0.0000E+00  0.3362E+00  0.0000E+00  0.0000E+00  0.5027E+00  0.6174E+00  0.1904E+02  0.1877E+02  0.1460E+06  0.1456E+06  0.2933E+04  0.1311E+04  0.0000E+00  0.0000E+00  0.0000E+00  0.0000E+00  0.0000E+00  0.0000E+00  0.0000E+00  0.0000E+00  0.0000E+00  0.0000E+00  0.0000E+00  0.0000E+00  0.0000E+00  0.0000E+00  0.0000E+00  0.0000E+00  0.0000E+00  0.1223E+04  0.2597E+03  0.0000E+00  0.0000E+00
REACH    6        0  2011  0.5361E+00  0.3119E-01  0.3118E-01  0.1071E-04  0.0000E+00  0.1856E+04  0.2235E+03  0.9587E+02  0.2390E+04  0.2389E+04  0.5260E+03  0.5256E+03  0.1050E+03  0.1050E+03  0.4467E+00  0.1310E+01  0.0000E+00  0.8511E-03  0.1140E+01  0.1495E+01  0.3652E+02  0.3600E+02  0.2869E+06  0.2858E+06  0.4083E+04  0.3173E+04  0.0000E+00  0.0000E+00  0.0000E+00  0.0000E+00  0.0000E+00  0.0000E+00  0.0000E+00  0.0000E+00  0.0000E+00  0.0000E+00  0.0000E+00  0.0000E+00  0.0000E+00  0.0000E+00  0.0000E+00  0.0000E+00  0.0000E+00  0.2495E+04  0.5271E+03  0.0000E+00  0.0000E+00
REACH    7        0  2011  0.8570E+00  0.5009E-01  0.5008E-01  0.7975E-05  0.0000E+00  0.1768E+04  0.4418E+03  0.1134E+03  0.3871E+04  0.3870E+04  0.8550E+03  0.8548E+03  0.1969E+03  0.1968E+03  0.1617E+01  0.2300E+01  0.8511E-03  0.1680E-02  0.2682E+01  0.2922E+01  0.6096E+02  0.6061E+02  0.5128E+06  0.5119E+06  0.5745E+04  0.4596E+04  0.0000E+00  0.0000E+00  0.0000E+00  0.0000E+00  0.0000E+00  0.0000E+00  0.0000E+00  0.0000E+00  0.0000E+00  0.0000E+00  0.0000E+00  0.0000E+00  0.0000E+00  0.0000E+00  0.0000E+00  0.0000E+00  0.0000E+00  0.4069E+04  0.8577E+03  0.0000E+00  0.0000E+00
REACH    8        0  2011  0.1082E+01  0.6310E-01  0.6309E-01  0.1328E-04  0.0000E+00  0.1231E+04  0.4963E+03  0.1035E+03  0.4828E+04  0.4826E+04  0.1065E+04  0.1065E+04  0.2532E+03  0.2531E+03  0.2347E+01  0.3687E+01  0.1680E-02  0.2924E-02  0.3414E+01  0.3887E+01  0.7480E+02  0.7421E+02  0.6274E+06  0.6258E+06  0.6611E+04  0.5078E+04  0.0000E+00  0.0000E+00  0.0000E+00  0.0000E+00  0.0000E+00  0.0000E+00  0.0000E+00  0.0000E+00  0.0000E+00  0.0000E+00  0.0000E+00  0.0000E+00  0.0000E+00  0.0000E+00  0.0000E+00  0.0000E+00  0.0000E+00  0.5083E+04  0.1069E+04  0.0000E+00  0.0000E+00
REACH    9        0  2011  0.1363E+01  0.7947E-01  0.7947E-01  0.5946E-05  0.0000E+00  0.1719E+04  0.6435E+03  0.1055E+03  0.6075E+04  0.6074E+04  0.1340E+04  0.1340E+04  0.3226E+03  0.3226E+03  0.4270E+01  0.4874E+01  0.2924E-02  0.3797E-02  0.4685E+01  0.4899E+01  0.9250E+02  0.9225E+02  0.7968E+06  0.7960E+06  0.7074E+04  0.6651E+04  0.0000E+00  0.0000E+00  0.0000E+00  0.0000E+00  0.0000E+00  0.0000E+00  0.0000E+00  0.0000E+00  0.0000E+00  0.0000E+00  0.0000E+00  0.0000E+00  0.0000E+00  0.0000E+00  0.0000E+00  0.0000E+00  0.0000E+00  0.6401E+04  0.1345E+04  0.0000E+00  0.0000E+00
REACH    1        0     1  0.2442E+00  0.1205E-03  0.1205E-03  0.1997E-07  0.0000E+00  0.6065E+01  0.6065E+01  0.4349E+01  0.2255E+01  0.2254E+01  0.5120E+00  0.5114E+00  0.3421E+00  0.3421E+00  0.0000E+00  0.1167E-02  0.0000E+00  0.0000E+00  0.2196E-02  0.2610E-02  0.8564E-02  0.8195E-02  0.5778E+03  0.5750E+03  0.2328E+02  0.3539E+00  0.0000E+00  0.0000E+00  0.0000E+00  0.0000E+00  0.0000E+00  0.0000E+00  0.0000E+00  0.0000E+00  0.0000E+00  0.0000E+00  0.0000E+00  0.0000E+00  0.0000E+00  0.0000E+00  0.0000E+00  0.0000E+00  0.0000E+00  0.2597E+01  0.5140E+00  0.0000E+00  0.0000E+00
REACH    2        0     1  0.1348E+00  0.6732E-04  0.6732E-04  0.1641E-08  0.0000E+00  0.3181E+01  0.3181E+01  0.4083E+01  0.1250E+01  0.1250E+01  0.2783E+00  0.2782E+00  0.1832E+00  0.1832E+00  0.0000E+00  0.8762E-04  0.0000E+00  0.0000E+00  0.2623E-02  0.2654E-02  0.4541E-02  0.4514E-02  0.3019E+03  0.3017E+03  0.1291E+02  0.1977E+00  0.0000E+00  0.0000E+00  0.0000E+00  0.0000E+00  0.0000E+00  0.0000E+00  0.0000E+00  0.0000E+00  0.0000E+00  0.0000E+00  0.0000E+00  0.0000E+00  0.0000E+00  0.0000E+00  0.0000E+00  0.0000E+00  0.0000E+00  0.1433E+01  0.2809E+00  0.0000E+00  0.0000E+00
REACH    3        0     1  0.1273E+00  0.6270E-04  0.6270E-04  0.5914E-08  0.0000E+00  0.2362E+01  0.2362E+01  0.3255E+01  0.1420E+01  0.1420E+01  0.3127E+00  0.3126E+00  0.1720E+00  0.1720E+00  0.0000E+00  0.3167E-03  0.0000E+00  0.0000E+00  0.9273E-03  0.1036E-02  0.5007E-02  0.4892E-02  0.2350E+03  0.2345E+03  0.1218E+02  0.1842E+00  0.0000E+00  0.0000E+00  0.0000E+00  0.0000E+00  0.0000E+00  0.0000E+00  0.0000E+00  0.0000E+00  0.0000E+00  0.0000E+00  0.0000E+00  0.0000E+00  0.0000E+00  0.0000E+00  0.0000E+00  0.0000E+00  0.0000E+00  0.1592E+01  0.3136E+00  0.0000E+00  0.0000E+00
REACH    4        0     1  0.1895E+00  0.9976E-04  0.9975E-04  0.1438E-07  0.0000E+00  0.3727E+01  0.3727E+01  0.3228E+01  0.7278E+00  0.7275E+00  0.1702E+00  0.1700E+00  0.3034E+00  0.3033E+00  0.0000E+00  0.3082E-03  0.0000E+00  0.0000E+00  0.1931E-01  0.1940E-01  0.3206E-02  0.3088E-02  0.3403E+03  0.3392E+03  0.1797E+02  0.2930E+00  0.0000E+00  0.0000E+00  0.0000E+00  0.0000E+00  0.0000E+00  0.0000E+00  0.0000E+00  0.0000E+00  0.0000E+00  0.0000E+00  0.0000E+00  0.0000E+00  0.0000E+00  0.0000E+00  0.0000E+00  0.0000E+00  0.0000E+00  0.1031E+01  0.1894E+00  0.0000E+00  0.0000E+00
REACH    5        0     1  0.2556E+00  0.1331E-03  0.1331E-03  0.1590E-07  0.0000E+00  0.5334E+01  0.5334E+01  0.3462E+01  0.3839E+01  0.3837E+01  0.8453E+00  0.8448E+00  0.3971E+00  0.3971E+00  0.0000E+00  0.1171E-02  0.0000E+00  0.0000E+00  0.6861E-02  0.7268E-02  0.2078E-01  0.2012E-01  0.6682E+03  0.6663E+03  0.2302E+02  0.3909E+00  0.0000E+00  0.0000E+00  0.0000E+00  0.0000E+00  0.0000E+00  0.0000E+00  0.0000E+00  0.0000E+00  0.0000E+00  0.0000E+00  0.0000E+00  0.0000E+00  0.0000E+00  0.0000E+00  0.0000E+00  0.0000E+00  0.0000E+00  0.4235E+01  0.8520E+00  0.0000E+00  0.0000E+00
REACH    6        0     1  0.5361E+00  0.2698E-03  0.2698E-03  0.2818E-07  0.0000E+00  0.1016E+02  0.2328E+01  0.7457E+00  0.6802E+01  0.6798E+01  0.1497E+01  0.1496E+01  0.7867E+00  0.7867E+00  0.1488E-02  0.4239E-02  0.0000E+00  0.0000E+00  0.9823E-02  0.1079E-01  0.3012E-01  0.2923E-01  0.1143E+04  0.1138E+04  0.1540E+02  0.7923E+00  0.0000E+00  0.0000E+00  0.0000E+00  0.0000E+00  0.0000E+00  0.0000E+00  0.0000E+00  0.0000E+00  0.0000E+00  0.0000E+00  0.0000E+00  0.0000E+00  0.0000E+00  0.0000E+00  0.0000E+00  0.0000E+00  0.0000E+00  0.7589E+01  0.1507E+01  0.0000E+00  0.0000E+00
REACH    7        0     1  0.8570E+00  0.4353E-03  0.4353E-03  0.2131E-07  0.0000E+00  0.8871E+01  0.3784E+01  0.7511E+00  0.8772E+01  0.8769E+01  0.1975E+01  0.1974E+01  0.1321E+01  0.1321E+01  0.4547E-02  0.6544E-02  0.0000E+00  0.0000E+00  0.3775E-01  0.3846E-01  0.4039E-01  0.3981E-01  0.1773E+04  0.1770E+04  0.1320E+02  0.1279E+01  0.0000E+00  0.0000E+00  0.0000E+00  0.0000E+00  0.0000E+00  0.0000E+00  0.0000E+00  0.0000E+00  0.0000E+00  0.0000E+00  0.0000E+00  0.0000E+00  0.0000E+00  0.0000E+00  0.0000E+00  0.0000E+00  0.0000E+00  0.1010E+02  0.2012E+01  0.0000E+00  0.0000E+00
REACH    8        0     1  0.1082E+01  0.5447E-03  0.5447E-03  0.3470E-07  0.0000E+00  0.7748E+01  0.4397E+01  0.6976E+00  0.1074E+02  0.1073E+02  0.2416E+01  0.2414E+01  0.1669E+01  0.1669E+01  0.6632E-02  0.1028E-01  0.0000E+00  0.0000E+00  0.4258E-01  0.4389E-01  0.4830E-01  0.4739E-01  0.2209E+04  0.2202E+04  0.1018E+02  0.1600E+01  0.0000E+00  0.0000E+00  0.0000E+00  0.0000E+00  0.0000E+00  0.0000E+00  0.0000E+00  0.0000E+00  0.0000E+00  0.0000E+00  0.0000E+00  0.0000E+00  0.0000E+00  0.0000E+00  0.0000E+00  0.0000E+00  0.0000E+00  0.1241E+02  0.2458E+01  0.0000E+00  0.0000E+00
REACH    9        0     1  0.1363E+01  0.6831E-03  0.6831E-03  0.1524E-07  0.0000E+00  0.1075E+02  0.5996E+01  0.7584E+00  0.1333E+02  0.1333E+02  0.3001E+01  0.3000E+01  0.2067E+01  0.2067E+01  0.1144E-01  0.1306E-01  0.0000E+00  0.0000E+00  0.4820E-01  0.4878E-01  0.5742E-01  0.5704E-01  0.2808E+04  0.2805E+04  0.5724E+01  0.2006E+01  0.0000E+00  0.0000E+00  0.0000E+00  0.0000E+00  0.0000E+00  0.0000E+00  0.0000E+00  0.0000E+00  0.0000E+00  0.0000E+00  0.0000E+00  0.0000E+00  0.0000E+00  0.0000E+00  0.0000E+00  0.0000E+00  0.0000E+00  0.1541E+02  0.3049E+01  0.0000E+00  0.0000E+00
REACH    1        0  2011  0.2442E+00  0.1205E-03  0.1205E-03  0.1997E-07  0.0000E+00  0.6065E+01  0.6065E+01  0.4349E+01  0.2255E+01  0.2254E+01  0.5120E+00  0.5114E+00  0.3421E+00  0.3421E+00  0.0000E+00  0.1167E-02  0.0000E+00  0.0000E+00  0.2196E-02  0.2610E-02  0.8564E-02  0.8195E-02  0.5778E+03  0.5750E+03  0.2328E+02  0.3539E+00  0.0000E+00  0.0000E+00  0.0000E+00  0.0000E+00  0.0000E+00  0.0000E+00  0.0000E+00  0.0000E+00  0.0000E+00  0.0000E+00  0.0000E+00  0.0000E+00  0.0000E+00  0.0000E+00  0.0000E+00  0.0000E+00  0.0000E+00  0.2597E+01  0.5140E+00  0.0000E+00  0.0000E+00
REACH    2        0  2011  0.1348E+00  0.6732E-04  0.6732E-04  0.1641E-08  0.0000E+00  0.3181E+01  0.3181E+01  0.4083E+01  0.1250E+01  0.1250E+01  0.2783E+00  0.2782E+00  0.1832E+00  0.1832E+00  0.0000E+00  0.8762E-04  0.0000E+00  0.0000E+00  0.2623E-02  0.2654E-02  0.4541E-02  0.4514E-02  0.3019E+03  0.3017E+03  0.1291E+02  0.1977E+00  0.0000E+00  0.0000E+00  0.0000E+00  0.0000E+00  0.0000E+00  0.0000E+00  0.0000E+00  0.0000E+00  0.0000E+00  0.0000E+00  0.0000E+00  0.0000E+00  0.0000E+00  0.0000E+00  0.0000E+00  0.0000E+00  0.0000E+00  0.1433E+01  0.2809E+00  0.0000E+00  0.0000E+00
REACH    3        0  2011  0.1273E+00  0.6270E-04  0.6270E-04  0.5914E-08  0.0000E+00  0.2362E+01  0.2362E+01  0.3255E+01  0.1420E+01  0.1420E+01  0.3127E+00  0.3126E+00  0.1720E+00  0.1720E+00  0.0000E+00  0.3167E-03  0.0000E+00  0.0000E+00  0.9273E-03  0.1036E-02  0.5007E-02  0.4892E-02  0.2350E+03  0.2345E+03  0.1218E+02  0.1842E+00  0.0000E+00  0.0000E+00  0.0000E+00  0.0000E+00  0.0000E+00  0.0000E+00  0.0000E+00  0.0000E+00  0.0000E+00  0.0000E+00  0.0000E+00  0.0000E+00  0.0000E+00  0.0000E+00  0.0000E+00  0.0000E+00  0.0000E+00  0.1592E+01  0.3136E+00  0.0000E+00  0.0000E+00
REACH    4        0  2011  0.1895E+00  0.9976E-04  0.9975E-04  0.1438E-07  0.0000E+00  0.3727E+01  0.3727E+01  0.3228E+01  0.7278E+00  0.7275E+00  0.1702E+00  0.1700E+00  0.3034E+00  0.3033E+00  0.0000E+00  0.3082E-03  0.0000E+00  0.0000E+00  0.1931E-01  0.1940E-01  0.3206E-02  0.3088E-02  0.3403E+03  0.3392E+03  0.1797E+02  0.2930E+00  0.0000E+00  0.0000E+00  0.0000E+00  0.0000E+00  0.0000E+00  0.0000E+00  0.0000E+00  0.0000E+00  0.0000E+00  0.0000E+00  0.0000E+00  0.0000E+00  0.0000E+00  0.0000E+00  0.0000E+00  0.0000E+00  0.0000E+00  0.1031E+01  0.1894E+00  0.0000E+00  0.0000E+00
REACH    5        0  2011  0.2556E+00  0.1331E-03  0.1331E-03  0.1590E-07  0.0000E+00  0.5334E+01  0.5334E+01  0.3462E+01  0.3839E+01  0.3837E+01  0.8453E+00  0.8448E+00  0.3971E+00  0.3971E+00  0.0000E+00  0.1171E-02  0.0000E+00  0.0000E+00  0.6861E-02  0.7268E-02  0.2078E-01  0.2012E-01  0.6682E+03  0.6663E+03  0.2302E+02  0.3909E+00  0.0000E+00  0.0000E+00  0.0000E+00  0.0000E+00  0.0000E+00  0.0000E+00  0.0000E+00  0.0000E+00  0.0000E+00  0.0000E+00  0.0000E+00  0.0000E+00  0.0000E+00  0.0000E+00  0.0000E+00  0.0000E+00  0.0000E+00  0.4235E+01  0.8520E+00  0.0000E+00  0.0000E+00
REACH    6        0  2011  0.5361E+00  0.2698E-03  0.2698E-03  0.2818E-07  0.0000E+00  0.1016E+02  0.2328E+01  0.7457E+00  0.6802E+01  0.6798E+01  0.1497E+01  0.1496E+01  0.7867E+00  0.7867E+00  0.1488E-02  0.4239E-02  0.0000E+00  0.0000E+00  0.9823E-02  0.1079E-01  0.3012E-01  0.2923E-01  0.1143E+04  0.1138E+04  0.1540E+02  0.7923E+00  0.0000E+00  0.0000E+00  0.0000E+00  0.0000E+00  0.0000E+00  0.0000E+00  0.0000E+00  0.0000E+00  0.0000E+00  0.0000E+00  0.0000E+00  0.0000E+00  0.0000E+00  0.0000E+00  0.0000E+00  0.0000E+00  0.0000E+00  0.7589E+01  0.1507E+01  0.0000E+00  0.0000E+00
REACH    7        0  2011  0.8570E+00  0.4353E-03  0.4353E-03  0.2131E-07  0.0000E+00  0.8871E+01  0.3784E+01  0.7511E+00  0.8772E+01  0.8769E+01  0.1975E+01  0.1974E+01  0.1321E+01  0.1321E+01  0.4547E-02  0.6544E-02  0.0000E+00  0.0000E+00  0.3775E-01  0.3846E-01  0.4039E-01  0.3981E-01  0.1773E+04  0.1770E+04  0.1320E+02  0.1279E+01  0.0000E+00  0.0000E+00  0.0000E+00  0.0000E+00  0.0000E+00  0.0000E+00  0.0000E+00  0.0000E+00  0.0000E+00  0.0000E+00  0.0000E+00  0.0000E+00  0.0000E+00  0.0000E+00  0.0000E+00  0.0000E+00  0.0000E+00  0.1010E+02  0.2012E+01  0.0000E+00  0.0000E+00
REACH    8        0  2011  0.1082E+01  0.5447E-03  0.5447E-03  0.3470E-07  0.0000E+00  0.7748E+01  0.4397E+01  0.6976E+00  0.1074E+02  0.1073E+02  0.2416E+01  0.2414E+01  0.1669E+01  0.1669E+01  0.6632E-02  0.1028E-01  0.0000E+00  0.0000E+00  0.4258E-01  0.4389E-01  0.4830E-01  0.4739E-01  0.2209E+04  0.2202E+04  0.1018E+02  0.1600E+01  0.0000E+00  0.0000E+00  0.0000E+00  0.0000E+00  0.0000E+00  0.0000E+00  0.0000E+00  0.0000E+00  0.0000E+00  0.0000E+00  0.0000E+00  0.0000E+00  0.0000E+00  0.0000E+00  0.0000E+00  0.0000E+00  0.0000E+00  0.1241E+02  0.2458E+01  0.0000E+00  0.0000E+00
REACH    9        0  2011  0.1363E+01  0.6831E-03  0.6831E-03  0.1524E-07  0.0000E+00  0.1075E+02  0.5996E+01  0.7584E+00  0.1333E+02  0.1333E+02  0.3001E+01  0.3000E+01  0.2067E+01  0.2067E+01  0.1144E-01  0.1306E-01  0.0000E+00  0.0000E+00  0.4820E-01  0.4878E-01  0.5742E-01  0.5704E-01  0.2808E+04  0.2805E+04  0.5724E+01  0.2006E+01  0.0000E+00  0.0000E+00  0.0000E+00  0.0000E+00  0.0000E+00  0.0000E+00  0.0000E+00  0.0000E+00  0.0000E+00  0.0000E+00  0.0000E+00  0.0000E+00  0.0000E+00  0.0000E+00  0.0000E+00  0.0000E+00  0.0000E+00  0.1541E+02  0.3049E+01  0.0000E+00  0.0000E+00
REACH    1        0   3.0  0.2442E+00  0.1755E-01  0.1754E-01  0.7377E-05  0.0000E+00  0.1187E+04  0.1187E+04  0.2196E+03  0.1286E+04  0.1285E+04  0.2828E+03  0.2825E+03  0.7317E+02  0.7314E+02  0.0000E+00  0.6237E+00  0.0000E+00  0.0000E+00  0.7218E+00  0.9386E+00  0.2236E+02  0.2190E+02  0.1926E+06  0.1918E+06  0.3391E+04  0.1803E+04  0.0000E+00  0.0000E+00  0.0000E+00  0.0000E+00  0.0000E+00  0.0000E+00  0.0000E+00  0.0000E+00  0.0000E+00  0.0000E+00  0.0000E+00  0.0000E+00  0.0000E+00  0.0000E+00  0.0000E+00  0.0000E+00  0.0000E+00  0.1359E+04  0.2835E+03  0.0000E+00  0.0000E+00
REACH    2        0   3.0  0.1348E+00  0.9715E-02  0.9715E-02  0.6119E-06  0.0000E+00  0.6295E+03  0.6295E+03  0.2078E+03  0.7025E+03  0.7024E+03  0.1541E+03  0.1541E+03  0.3394E+02  0.3394E+02  0.0000E+00  0.4889E-01  0.0000E+00  0.0000E+00  0.3845E+00  0.4015E+00  0.1252E+02  0.1248E+02  0.1043E+06  0.1043E+06  0.1856E+04  0.1111E+04  0.0000E+00  0.0000E+00  0.0000E+00  0.0000E+00  0.0000E+00  0.0000E+00  0.0000E+00  0.0000E+00  0.0000E+00  0.0000E+00  0.0000E+00  0.0000E+00  0.0000E+00  0.0000E+00  0.0000E+00  0.0000E+00  0.0000E+00  0.7364E+03  0.1545E+03  0.0000E+00  0.0000E+00
REACH    3        0   3.0  0.1273E+00  0.9145E-02  0.9143E-02  0.2087E-05  0.0000E+00  0.4695E+03  0.4695E+03  0.1640E+03  0.6560E+03  0.6558E+03  0.1436E+03  0.1435E+03  0.3219E+02  0.3218E+02  0.0000E+00  0.1284E+00  0.0000E+00  0.0000E+00  0.3692E+00  0.4128E+00  0.1130E+02  0.1118E+02  0.8089E+05  0.8074E+05  0.1779E+04  0.1088E+04  0.0000E+00  0.0000E+00  0.0000E+00  0.0000E+00  0.0000E+00  0.0000E+00  0.0000E+00  0.0000E+00  0.0000E+00  0.0000E+00  0.0000E+00  0.0000E+00  0.0000E+00  0.0000E+00  0.0000E+00  0.0000E+00  0.0000E+00  0.6881E+03  0.1439E+03  0.0000E+00  0.0000E+00
REACH    4        0   3.0  0.1895E+00  0.1374E-01  0.1374E-01  0.5423E-05  0.0000E+00  0.1002E+04  0.1002E+04  0.2447E+03  0.9988E+03  0.9983E+03  0.2193E+03  0.2192E+03  0.4219E+02  0.4217E+02  0.0000E+00  0.3699E+00  0.0000E+00  0.0000E+00  0.6396E+00  0.7663E+00  0.2014E+02  0.1977E+02  0.1711E+06  0.1705E+06  0.2457E+04  0.1217E+04  0.0000E+00  0.0000E+00  0.0000E+00  0.0000E+00  0.0000E+00  0.0000E+00  0.0000E+00  0.0000E+00  0.0000E+00  0.0000E+00  0.0000E+00  0.0000E+00  0.0000E+00  0.0000E+00  0.0000E+00  0.0000E+00  0.0000E+00  0.1041E+04  0.2199E+03  0.0000E+00  0.0000E+00
REACH    5        0   3.0  0.2556E+00  0.1828E-01  0.1828E-01  0.6002E-05  0.0000E+00  0.8890E+03  0.8890E+03  0.1635E+03  0.1343E+04  0.1342E+04  0.2944E+03  0.2942E+03  0.5757E+02  0.5755E+02  0.0000E+00  0.4030E+00  0.0000E+00  0.0000E+00  0.8012E+00  0.9390E+00  0.2498E+02  0.2463E+02  0.1662E+06  0.1658E+06  0.3356E+04  0.1614E+04  0.0000E+00  0.0000E+00  0.0000E+00  0.0000E+00  0.0000E+00  0.0000E+00  0.0000E+00  0.0000E+00  0.0000E+00  0.0000E+00  0.0000E+00  0.0000E+00  0.0000E+00  0.0000E+00  0.0000E+00  0.0000E+00  0.0000E+00  0.1400E+04  0.2951E+03  0.0000E+00  0.0000E+00
REACH    6        0   3.0  0.5361E+00  0.3837E-01  0.3835E-01  0.1113E-04  0.0000E+00  0.1860E+04  0.2663E+03  0.1069E+03  0.2761E+04  0.2759E+04  0.6044E+03  0.6039E+03  0.1275E+03  0.1274E+03  0.5314E+00  0.1561E+01  0.0000E+00  0.4317E-03  0.1853E+01  0.2262E+01  0.4866E+02  0.4799E+02  0.3329E+06  0.3315E+06  0.4867E+04  0.3845E+04  0.0000E+00  0.0000E+00  0.0000E+00  0.0000E+00  0.0000E+00  0.0000E+00  0.0000E+00  0.0000E+00  0.0000E+00  0.0000E+00  0.0000E+00  0.0000E+00  0.0000E+00  0.0000E+00  0.0000E+00  0.0000E+00  0.0000E+00  0.2888E+04  0.6061E+03  0.0000E+00  0.0000E+00
REACH    7        0   3.0  0.8570E+00  0.6154E-01  0.6153E-01  0.8210E-05  0.0000E+00  0.1861E+04  0.5442E+03  0.1269E+03  0.4448E+04  0.4447E+04  0.9773E+03  0.9770E+03  0.2372E+03  0.2372E+03  0.1931E+01  0.2766E+01  0.4317E-03  0.9032E-03  0.3785E+01  0.4078E+01  0.8060E+02  0.8013E+02  0.6025E+06  0.6014E+06  0.6823E+04  0.5590E+04  0.0000E+00  0.0000E+00  0.0000E+00  0.0000E+00  0.0000E+00  0.0000E+00  0.0000E+00  0.0000E+00  0.0000E+00  0.0000E+00  0.0000E+00  0.0000E+00  0.0000E+00  0.0000E+00  0.0000E+00  0.0000E+00  0.0000E+00  0.4687E+04  0.9811E+03  0.0000E+00  0.0000E+00
REACH    8        0   3.0  0.1082E+01  0.7758E-01  0.7756E-01  0.1376E-04  0.0000E+00  0.1366E+04  0.5915E+03  0.1149E+03  0.5570E+04  0.5568E+04  0.1223E+04  0.1222E+04  0.3036E+03  0.3035E+03  0.2815E+01  0.4498E+01  0.9032E-03  0.1855E-02  0.4886E+01  0.5479E+01  0.9919E+02  0.9838E+02  0.7411E+06  0.7390E+06  0.7981E+04  0.6335E+04  0.0000E+00  0.0000E+00  0.0000E+00  0.0000E+00  0.0000E+00  0.0000E+00  0.0000E+00  0.0000E+00  0.0000E+00  0.0000E+00  0.0000E+00  0.0000E+00  0.0000E+00  0.0000E+00  0.0000E+00  0.0000E+00  0.0000E+00  0.5876E+04  0.1228E+04  0.0000E+00  0.0000E+00
REACH    9        0   3.0  0.1363E+01  0.9771E-01  0.9771E-01  0.6125E-05  0.0000E+00  0.1840E+04  0.7748E+03  0.1187E+03  0.7002E+04  0.7001E+04  0.1537E+04  0.1537E+04  0.3851E+03  0.3851E+03  0.5121E+01  0.5900E+01  0.1855E-02  0.2381E-02  0.6697E+01  0.6973E+01  0.1228E+03  0.1224E+03  0.9421E+06  0.9411E+06  0.8678E+04  0.8242E+04  0.0000E+00  0.0000E+00  0.0000E+00  0.0000E+00  0.0000E+00  0.0000E+00  0.0000E+00  0.0000E+00  0.0000E+00  0.0000E+00  0.0000E+00  0.0000E+00  0.0000E+00  0.0000E+00  0.0000E+00  0.0000E+00  0.0000E+00  0.7392E+04  0.1544E+04  0.0000E+00  0.0000E+00
